Network_03R-200/scenario_111/case.raw
0,100.0,33,0,1,60.0
GRID OPTIMIZATION COMPETITION
INPUT DATA FILES ARE RAW ROP INL CON
1,'A1',115.0,1,1,1,1,1.0075,-8.1956,1.06,0.93,1.1,0.9
2,'A2',115.0,1,1,1,1,1.01216,-9.3867,1.06,0.93,1.1,0.9
3,'A3',35.0,1,1,1,1,1.00458,-8.9532,1.06,0.93,1.1,0.9
4,'A4',115.0,1,1,1,1,1.01393,-7.2111,1.06,0.93,1.1,0.9
5,'A5',13.0,1,1,1,1,1.01209,-9.7581,1.06,0.93,1.1,0.9
6,'A6',14.0,2,1,1,1,1.0002,-7.4295,1.06,0.93,1.1,0.9
7,'A7',115.0,1,1,1,1,1.00647,-8.7445,1.06,0.93,1.1,0.9
8,'A8',13.0,1,1,1,1,1.01252,-9.343,1.06,0.93,1.1,0.9
9,'A9',35.0,1,1,1,1,1.00526,-8.7103,1.06,0.93,1.1,0.9
10,'A10',115.0,1,1,1,1,1.01159,-9.7186,1.06,0.93,1.1,0.9
11,'A11',115.0,1,1,1,1,1.00957,-10.0646,1.06,0.93,1.1,0.9
12,'A12',35.0,1,1,1,1,1.01314,-8.4398,1.06,0.93,1.1,0.9
13,'A13',13.0,1,1,1,1,1.01716,-8.9676,1.06,0.93,1.1,0.9
15,'A15',35.0,1,1,1,1,1.01383,-9.0058,1.06,0.93,1.1,0.9
16,'A16',115.0,1,1,1,1,1.0162,-7.0689,1.06,0.93,1.1,0.9
17,'A17',115.0,1,1,1,1,1.0167,-7.1782,1.06,0.93,1.1,0.9
18,'A18',230.0,1,1,1,1,1.01006,-6.1503,1.06,0.93,1.1,0.9
19,'A19',230.0,1,1,1,1,1.01018,-6.1106,1.06,0.93,1.1,0.9
20,'A20',13.0,1,1,1,1,1.01394,-7.2602,1.06,0.93,1.1,0.9
21,'A21',115.0,1,1,1,1,1.00894,-11.9273,1.06,0.93,1.1,0.9
22,'A22',115.0,1,1,1,1,1.00705,-8.2755,1.06,0.93,1.1,0.9
23,'A23',115.0,2,1,1,1,1.01,-5.4832,1.06,0.93,1.1,0.9
24,'A24',115.0,1,1,1,1,0.99895,-9.394,1.06,0.93,1.1,0.9
25,'A25',14.0,2,1,1,1,1.0002,-7.4295,1.06,0.93,1.1,0.9
27,'A27',115.0,1,1,1,1,1.01141,-9.708,1.06,0.93,1.1,0.9
28,'A28',35.0,1,1,1,1,0.99881,-9.0767,1.06,0.93,1.1,0.9
30,'A30',115.0,1,1,1,1,1.00161,-9.244,1.06,0.93,1.1,0.9
31,'A31',230.0,2,1,1,1,1.0099,-6.1492,1.06,0.93,1.1,0.9
32,'A32',115.0,1,1,1,1,1.01191,-9.499,1.06,0.93,1.1,0.9
33,'A33',230.0,2,1,1,1,1.00913,-6.3533,1.06,0.93,1.1,0.9
34,'A34',35.0,1,1,1,1,1.00859,-7.5876,1.06,0.93,1.1,0.9
35,'A35',230.0,2,1,1,1,1.01018,-6.1106,1.06,0.93,1.1,0.9
36,'A36',230.0,1,1,1,1,1.00913,-6.3533,1.06,0.93,1.1,0.9
37,'A37',230.0,1,1,1,1,1.01171,-8.1876,1.06,0.93,1.1,0.9
38,'A38',230.0,1,1,1,1,1.00921,-6.2349,1.06,0.93,1.1,0.9
39,'A39',35.0,1,1,1,1,0.99307,-5.7089,1.06,0.93,1.1,0.9
40,'A40',115.0,1,1,1,1,1.01457,-6.5292,1.06,0.93,1.1,0.9
41,'A41',230.0,1,1,1,1,1.00548,-8.8075,1.06,0.93,1.1,0.9
43,'A43',115.0,2,1,1,1,1.0131,-7.1917,1.06,0.93,1.1,0.9
44,'A44',115.0,1,1,1,1,1.00991,-5.791,1.06,0.93,1.1,0.9
45,'A45',230.0,2,1,1,1,1.00913,-6.3533,1.06,0.93,1.1,0.9
46,'A46',230.0,2,1,1,1,1.0048,-8.4545,1.06,0.93,1.1,0.9
47,'A47',115.0,2,1,1,1,1.0131,-6.0852,1.06,0.93,1.1,0.9
49,'A49',35.0,1,1,1,1,1.00859,-7.5876,1.06,0.93,1.1,0.9
50,'A50',115.0,1,1,1,1,1.01257,-9.3577,1.06,0.93,1.1,0.9
51,'A51',13.0,1,1,1,1,0.99842,-9.4249,1.06,0.93,1.1,0.9
52,'A52',230.0,2,1,1,1,1.0051,-8.7856,1.06,0.93,1.1,0.9
53,'A53',115.0,1,1,1,1,1.01675,-10.1464,1.06,0.93,1.1,0.9
54,'A54',35.0,1,1,1,1,1.00088,-10.1142,1.06,0.93,1.1,0.9
55,'A55',230.0,2,1,1,1,1.0108,-7.4295,1.06,0.93,1.1,0.9
56,'A56',35.0,1,1,1,1,1.01393,-8.3664,1.06,0.93,1.1,0.9
57,'A57',115.0,1,1,1,1,1.00122,-12.5647,1.06,0.93,1.1,0.9
58,'A58',115.0,1,1,1,1,1.02217,-9.5852,1.06,0.93,1.1,0.9
59,'A59',35.0,2,1,1,1,1.01618,-5.6176,1.06,0.93,1.1,0.9
60,'A60',115.0,1,1,1,1,1.00578,-8.6568,1.06,0.93,1.1,0.9
61,'A61',13.0,1,1,1,1,1.01136,-9.7218,1.06,0.93,1.1,0.9
62,'A62',115.0,1,1,1,1,1.01743,-10.0856,1.06,0.93,1.1,0.9
63,'A63',230.0,1,1,1,1,1.00772,-8.5006,1.06,0.93,1.1,0.9
64,'A64',35.0,1,1,1,1,1.00933,-5.5035,1.06,0.93,1.1,0.9
65,'A65',14.0,2,1,1,1,1.0166,-6.9738,1.06,0.93,1.1,0.9
66,'A66',230.0,1,1,1,1,1.01006,-6.1503,1.06,0.93,1.1,0.9
67,'A67',115.0,1,1,1,1,1.01138,-7.533,1.06,0.93,1.1,0.9
68,'A68',115.0,1,1,1,1,1.01315,-11.0831,1.06,0.93,1.1,0.9
69,'A69',230.0,1,1,1,1,1.01022,-6.1039,1.06,0.93,1.1,0.9
70,'A70',35.0,1,1,1,1,1.00068,-6.6799,1.06,0.93,1.1,0.9
71,'A71',115.0,2,1,1,1,1.0159,-5.7044,1.06,0.93,1.1,0.9
72,'A72',115.0,1,1,1,1,1.0114,-9.6658,1.06,0.93,1.1,0.9
73,'A73',115.0,1,1,1,1,1.00703,-8.7418,1.06,0.93,1.1,0.9
74,'A74',115.0,1,1,1,1,1.01262,-9.3295,1.06,0.93,1.1,0.9
75,'A75',13.0,1,1,1,1,1.01437,-7.3129,1.06,0.93,1.1,0.9
76,'A76',115.0,1,1,1,1,1.01817,-10.0119,1.06,0.93,1.1,0.9
77,'A77',35.0,1,1,1,1,0.98908,-9.0795,1.06,0.93,1.1,0.9
78,'A78',35.0,1,1,1,1,1.00119,-9.2915,1.06,0.93,1.1,0.9
79,'A79',230.0,1,1,1,1,1.0117,-8.3063,1.06,0.93,1.1,0.9
80,'A80',14.0,2,1,1,1,1.0161,-7.0729,1.06,0.93,1.1,0.9
81,'A81',115.0,1,1,1,1,1.0174,-8.9408,1.06,0.93,1.1,0.9
82,'A82',115.0,1,1,1,1,1.01674,-10.1488,1.06,0.93,1.1,0.9
83,'A83',115.0,1,1,1,1,1.01418,-10.9615,1.06,0.93,1.1,0.9
84,'A84',115.0,1,1,1,1,1.0128,-11.1196,1.06,0.93,1.1,0.9
85,'A85',115.0,1,1,1,1,1.00118,-12.5694,1.06,0.93,1.1,0.9
86,'A86',230.0,2,1,1,1,1.0107,-5.5309,1.06,0.93,1.1,0.9
87,'A87',230.0,2,1,1,1,1.00558,-8.8088,1.06,0.93,1.1,0.9
88,'A88',35.0,1,1,1,1,1.00686,-6.9833,1.06,0.93,1.1,0.9
89,'A89',35.0,1,1,1,1,0.99954,-6.3893,1.06,0.93,1.1,0.9
90,'A90',230.0,2,1,1,1,1.0078,-8.4445,1.06,0.93,1.1,0.9
91,'A91',115.0,1,1,1,1,1.01454,-10.8998,1.06,0.93,1.1,0.9
92,'A92',115.0,1,1,1,1,1.0104,-10.0429,1.06,0.93,1.1,0.9
93,'A93',115.0,2,1,1,1,1.0161,-7.1426,1.06,0.93,1.1,0.9
94,'A94',115.0,1,1,1,1,0.99947,-9.3623,1.06,0.93,1.1,0.9
95,'B95',345.0,1,1,2,1,0.99665,-14.2349,1.06,0.93,1.1,0.9
96,'B96',345.0,1,1,2,1,0.9966,-14.2388,1.06,0.93,1.1,0.9
97,'B97',345.0,1,1,2,1,0.9975,-14.2707,1.06,0.93,1.1,0.9
98,'B98',345.0,2,1,2,1,0.99754,-14.2738,1.06,0.93,1.1,0.9
99,'B99',345.0,2,1,2,1,0.99958,-13.9101,1.06,0.93,1.1,0.9
100,'B100',345.0,2,1,2,1,0.99957,-13.9224,1.06,0.93,1.1,0.9
101,'B101',345.0,1,1,2,1,1.0114,-15.0946,1.06,0.93,1.1,0.9
102,'B102',345.0,1,1,2,1,1.0132,-14.9652,1.06,0.93,1.1,0.9
103,'B103',138.0,1,1,2,1,1.01971,-12.3061,1.06,0.93,1.1,0.9
104,'B104',138.0,1,1,2,1,1.00757,6.6211,1.06,0.93,1.1,0.9
105,'B105',138.0,2,1,2,1,1.00733,6.494,1.06,0.93,1.1,0.9
106,'B106',138.0,1,1,2,1,1.02124,-5.8974,1.06,0.93,1.1,0.9
107,'B107',138.0,1,1,2,1,1.02127,-5.9,1.06,0.93,1.1,0.9
108,'B108',138.0,1,1,2,1,1.02319,9.0495,1.06,0.93,1.1,0.9
109,'B109',138.0,1,1,2,1,1.01089,-13.3874,1.06,0.93,1.1,0.9
110,'B110',138.0,1,1,2,1,1.02126,-5.8759,1.06,0.93,1.1,0.9
111,'B111',138.0,1,1,2,1,1.02127,-5.8781,1.06,0.93,1.1,0.9
112,'B112',138.0,1,1,2,1,1.02802,-7.0817,1.06,0.93,1.1,0.9
113,'B113',138.0,1,1,2,1,1.02802,-7.0817,1.06,0.93,1.1,0.9
114,'B114',138.0,1,1,2,1,1.0281,-7.0755,1.06,0.93,1.1,0.9
115,'B115',138.0,1,1,2,1,1.01155,-13.727,1.06,0.93,1.1,0.9
116,'B116',138.0,2,1,2,1,1.01694,-12.537,1.06,0.93,1.1,0.9
117,'B117',138.0,2,1,2,1,1.01697,-12.5665,1.06,0.93,1.1,0.9
118,'B118',138.0,1,1,2,1,1.01572,-12.732,1.06,0.93,1.1,0.9
119,'B119',138.0,1,1,2,1,1.01582,-12.7249,1.06,0.93,1.1,0.9
120,'B120',138.0,1,1,2,1,1.01077,-13.5214,1.06,0.93,1.1,0.9
121,'B121',138.0,2,1,2,1,1.01285,-13.1025,1.06,0.93,1.1,0.9
122,'B122',138.0,1,1,2,1,1.01286,-13.1,1.06,0.93,1.1,0.9
123,'B123',138.0,1,1,2,1,1.01286,-13.1,1.06,0.93,1.1,0.9
124,'B124',138.0,1,1,2,1,1.01285,-13.1025,1.06,0.93,1.1,0.9
125,'B125',138.0,1,1,2,1,1.01093,-13.3841,1.06,0.93,1.1,0.9
126,'B126',138.0,1,1,2,1,1.01156,-13.7271,1.06,0.93,1.1,0.9
127,'B127',138.0,1,1,2,1,1.01902,-5.5081,1.06,0.93,1.1,0.9
128,'B128',138.0,1,1,2,1,1.01881,-5.4905,1.06,0.93,1.1,0.9
129,'B129',138.0,1,1,2,1,1.00581,-3.5271,1.06,0.93,1.1,0.9
130,'B130',138.0,1,1,2,1,1.00593,-3.5253,1.06,0.93,1.1,0.9
131,'B131',138.0,2,1,2,1,1.0279,-7.0926,1.06,0.93,1.1,0.9
132,'B132',138.0,1,1,2,1,1.01683,-12.545,1.06,0.93,1.1,0.9
133,'B133',138.0,2,1,2,1,1.00504,-14.394,1.06,0.93,1.1,0.9
134,'B134',138.0,2,1,2,1,0.9965,-15.343,1.06,0.93,1.1,0.9
135,'B135',138.0,1,1,2,1,1.01063,-13.4071,1.06,0.93,1.1,0.9
136,'B136',138.0,1,1,2,1,1.01282,-13.1047,1.06,0.93,1.1,0.9
137,'B137',138.0,1,1,2,1,1.00607,-5.1239,1.06,0.93,1.1,0.9
138,'B138',138.0,1,1,2,1,1.00115,1.448,1.06,0.93,1.1,0.9
139,'B139',138.0,1,1,2,1,1.00115,1.448,1.06,0.93,1.1,0.9
140,'B140',138.0,1,1,2,1,1.02141,-5.8326,1.06,0.93,1.1,0.9
141,'B141',138.0,1,1,2,1,1.02185,-5.7148,1.06,0.93,1.1,0.9
142,'B142',138.0,1,1,2,1,1.0194,-13.1748,1.06,0.93,1.1,0.9
143,'B143',138.0,1,1,2,1,1.01955,-13.1861,1.06,0.93,1.1,0.9
144,'B144',138.0,1,1,2,1,1.01093,-13.3841,1.06,0.93,1.1,0.9
145,'B145',138.0,1,1,2,1,1.01888,-12.6432,1.06,0.93,1.1,0.9
146,'B146',138.0,1,1,2,1,1.01955,-6.3136,1.06,0.93,1.1,0.9
147,'B147',138.0,1,1,2,1,1.01954,-6.3239,1.06,0.93,1.1,0.9
148,'B148',138.0,1,1,2,1,1.01618,-14.3539,1.06,0.93,1.1,0.9
149,'B149',138.0,1,1,2,1,1.0165,-14.3384,1.06,0.93,1.1,0.9
150,'B150',138.0,1,1,2,1,1.01149,-13.7302,1.06,0.93,1.1,0.9
151,'B151',138.0,2,1,2,1,1.00709,-2.6735,1.06,0.93,1.1,0.9
152,'B152',138.0,2,1,2,1,1.01959,-12.3043,1.06,0.93,1.1,0.9
153,'B153',138.0,1,1,2,1,1.01769,-12.8425,1.06,0.93,1.1,0.9
154,'B154',138.0,1,1,2,1,1.01782,-12.8563,1.06,0.93,1.1,0.9
155,'B155',138.0,1,1,2,1,1.02164,-5.9207,1.06,0.93,1.1,0.9
156,'B156',138.0,2,1,2,1,1.0217,-5.9081,1.06,0.93,1.1,0.9
157,'B157',138.0,1,1,2,1,1.02534,-6.0873,1.06,0.93,1.1,0.9
158,'B158',138.0,1,1,2,1,1.02542,-6.0826,1.06,0.93,1.1,0.9
159,'B159',138.0,2,1,2,1,1.0193,-5.8497,1.06,0.93,1.1,0.9
160,'B160',138.0,1,1,2,1,1.01931,-5.8525,1.06,0.93,1.1,0.9
161,'B161',138.0,1,1,2,1,1.01403,-12.9299,1.06,0.93,1.1,0.9
162,'B162',138.0,1,1,2,1,1.01395,-12.9481,1.06,0.93,1.1,0.9
163,'B163',138.0,1,1,2,1,1.02042,-5.8422,1.06,0.93,1.1,0.9
164,'B164',138.0,1,1,2,1,1.02043,-5.8395,1.06,0.93,1.1,0.9
165,'B165',138.0,1,1,2,1,1.02159,-5.9247,1.06,0.93,1.1,0.9
166,'B166',138.0,1,1,2,1,1.02166,-5.9114,1.06,0.93,1.1,0.9
167,'B167',138.0,1,1,2,1,1.01291,-13.1432,1.06,0.93,1.1,0.9
168,'B168',138.0,1,1,2,1,1.01298,-13.1151,1.06,0.93,1.1,0.9
169,'B169',138.0,1,1,2,1,1.01821,8.3519,1.06,0.93,1.1,0.9
170,'B170',138.0,1,1,2,1,1.01829,8.3575,1.06,0.93,1.1,0.9
171,'B171',138.0,1,1,2,1,1.0203,-5.8599,1.06,0.93,1.1,0.9
172,'B172',138.0,1,1,2,1,1.02032,-5.8604,1.06,0.93,1.1,0.9
173,'B173',138.0,1,1,2,1,1.00505,-4.1907,1.06,0.93,1.1,0.9
174,'B174',138.0,1,1,2,1,1.00561,-4.1507,1.06,0.93,1.1,0.9
175,'B175',138.0,1,1,2,1,1.0136,-14.0615,1.06,0.93,1.1,0.9
176,'B176',138.0,1,1,2,1,1.01373,-14.0724,1.06,0.93,1.1,0.9
177,'B177',138.0,1,1,2,1,1.0113,-13.6651,1.06,0.93,1.1,0.9
178,'B178',138.0,1,1,2,1,1.0113,-13.6651,1.06,0.93,1.1,0.9
179,'B179',138.0,2,1,2,1,1.0,2.9867,1.06,0.93,1.1,0.9
180,'B180',138.0,1,1,2,1,0.99974,3.1177,1.06,0.93,1.1,0.9
181,'B181',138.0,1,1,2,1,1.014,-4.7206,1.06,0.93,1.1,0.9
182,'B182',138.0,1,1,2,1,1.01419,-4.7399,1.06,0.93,1.1,0.9
183,'B183',138.0,1,1,2,1,1.01005,-3.7046,1.06,0.93,1.1,0.9
184,'B184',138.0,1,1,2,1,1.01751,-12.4822,1.06,0.93,1.1,0.9
185,'B185',138.0,1,1,2,1,1.01746,-12.5054,1.06,0.93,1.1,0.9
186,'B186',138.0,1,1,2,1,1.01769,-12.4731,1.06,0.93,1.1,0.9
187,'B187',138.0,1,1,2,1,1.01768,-12.4949,1.06,0.93,1.1,0.9
188,'B188',138.0,1,1,2,1,1.00833,-3.133,1.06,0.93,1.1,0.9
189,'B189',138.0,1,1,2,1,1.00815,-3.1119,1.06,0.93,1.1,0.9
190,'B190',138.0,2,1,2,1,1.033,-6.6545,1.06,0.93,1.1,0.9
191,'B191',138.0,1,1,2,1,1.01097,-13.4491,1.06,0.93,1.1,0.9
192,'B192',138.0,1,1,2,1,1.011,-13.4471,1.06,0.93,1.1,0.9
193,'B193',138.0,1,1,2,1,1.01073,-13.3997,1.06,0.93,1.1,0.9
194,'B194',138.0,1,1,2,1,1.02132,-11.113,1.06,0.93,1.1,0.9
195,'B195',138.0,1,1,2,1,1.02143,-11.1042,1.06,0.93,1.1,0.9
196,'B196',138.0,1,1,2,1,1.03301,-6.6546,1.06,0.93,1.1,0.9
197,'B197',138.0,1,1,2,1,1.01287,-13.1,1.06,0.93,1.1,0.9
198,'B198',138.0,1,1,2,1,1.01089,-13.5735,1.06,0.93,1.1,0.9
199,'B199',138.0,1,1,2,1,1.01089,-13.5733,1.06,0.93,1.1,0.9
200,'B200',138.0,1,1,2,1,1.02143,-5.9231,1.06,0.93,1.1,0.9
201,'B201',138.0,1,1,2,1,1.02147,-5.9236,1.06,0.93,1.1,0.9
202,'B202',138.0,1,1,2,1,1.02132,-5.9104,1.06,0.93,1.1,0.9
203,'B203',138.0,1,1,2,1,1.0213,-5.9079,1.06,0.93,1.1,0.9
204,'B204',138.0,1,1,2,1,1.0214,-5.8935,1.06,0.93,1.1,0.9
205,'B205',138.0,1,1,2,1,1.02135,-5.888,1.06,0.93,1.1,0.9
...
0 / END OF BUS DATA BEGIN LOAD DATA
1,'1',1,1,11,9.722,4.093,0.0,0.0,0.0,0.0,1,1,0
2,'1',1,1,11,5.604,1.246,0.0,0.0,0.0,0.0,1,1,0
2,'2',1,1,11,0.07,0.323,0.0,0.0,0.0,0.0,1,1,0
2,'99',0,1,11,16.545,15.406,0.0,0.0,0.0,0.0,1,1,0
3,'1',1,1,11,5.579,1.581,0.0,0.0,0.0,0.0,1,1,0
5,'1',1,1,11,0.31,-0.803,0.0,0.0,0.0,0.0,1,1,0
7,'1',1,1,11,4.301,2.461,0.0,0.0,0.0,0.0,1,1,0
8,'1',1,1,11,1.341,0.228,0.0,0.0,0.0,0.0,1,1,0
9,'1',1,1,11,8.286,1.626,0.0,0.0,0.0,0.0,1,1,0
12,'1',1,1,11,6.161,4.048,0.0,0.0,0.0,0.0,1,1,0
13,'1',1,1,11,5.111,1.404,0.0,0.0,0.0,0.0,1,1,0
15,'1',1,1,11,8.217,2.119,0.0,0.0,0.0,0.0,1,1,0
20,'1',1,1,11,8.04,-2.555,0.0,0.0,0.0,0.0,1,1,0
21,'1',1,1,11,4.991,-0.67,0.0,0.0,0.0,0.0,1,1,0
28,'1',1,1,11,15.314,1.822,0.0,0.0,0.0,0.0,1,1,0
32,'1',1,1,11,4.409,0.74,0.0,0.0,0.0,0.0,1,1,0
34,'1',1,1,11,6.174,5.073,0.0,0.0,0.0,0.0,1,1,0
36,'99',0,1,11,108.412,-4.52,0.0,0.0,0.0,0.0,1,1,0
37,'1',1,1,11,-5.155,-2.049,0.0,0.0,0.0,0.0,1,1,0
39,'1',1,1,11,10.968,4.415,0.0,0.0,0.0,0.0,1,1,0
43,'1',1,1,11,1.265,0.285,0.0,0.0,0.0,0.0,1,1,0
44,'1',1,1,11,5.579,1.417,0.0,0.0,0.0,0.0,1,1,0
47,'1',1,1,11,6.648,-0.942,0.0,0.0,0.0,0.0,1,1,0
49,'1',1,1,11,6.174,5.073,0.0,0.0,0.0,0.0,1,1,0
51,'1',1,1,11,3.163,1.898,0.0,0.0,0.0,0.0,1,1,0
53,'1',1,1,11,4.415,0.342,0.0,0.0,0.0,0.0,1,1,0
54,'1',1,1,11,9.026,-0.683,0.0,0.0,0.0,0.0,1,1,0
56,'1',1,1,11,3.96,3.662,0.0,0.0,0.0,0.0,1,1,0
57,'1',1,1,11,4.535,-0.171,0.0,0.0,0.0,0.0,1,1,0
58,'99',0,1,11,10.106,10.951,0.0,0.0,0.0,0.0,1,1,0
59,'1',1,1,11,5.636,3.327,0.0,0.0,0.0,0.0,1,1,0
61,'1',1,1,11,2.372,-0.291,0.0,0.0,0.0,0.0,1,1,0
62,'1',1,1,11,4.928,-0.171,0.0,0.0,0.0,0.0,1,1,0
63,'1',1,1,11,18.673,0.057,0.0,0.0,0.0,0.0,1,1,0
64,'1',1,1,11,5.358,4.75,0.0,0.0,0.0,0.0,1,1,0
65,'1',1,1,11,0.576,0.373,0.0,0.0,0.0,0.0,1,1,0
68,'1',1,1,11,4.447,-0.164,0.0,0.0,0.0,0.0,1,1,0
70,'1',1,1,11,3.504,-2.195,0.0,0.0,0.0,0.0,1,1,0
71,'1',1,1,11,3.555,-1.107,0.0,0.0,0.0,0.0,1,1,0
71,'2',1,1,11,3.555,-1.107,0.0,0.0,0.0,0.0,1,1,0
72,'1',1,1,11,3.384,0.221,0.0,0.0,0.0,0.0,1,1,0
74,'1',1,1,11,-0.209,0.221,0.0,0.0,0.0,0.0,1,1,0
74,'2',1,1,11,4.409,2.79,0.0,0.0,0.0,0.0,1,1,0
75,'1',1,1,11,1.885,-1.531,0.0,0.0,0.0,0.0,1,1,0
76,'1',1,1,11,3.378,-0.171,0.0,0.0,0.0,0.0,1,1,0
77,'1',1,1,11,14.821,0.266,0.0,0.0,0.0,0.0,1,1,0
78,'1',1,1,11,8.824,2.176,0.0,0.0,0.0,0.0,1,1,0
80,'1',1,1,11,0.569,0.342,0.0,0.0,0.0,0.0,1,1,0
81,'99',0,1,11,30.844,22.078,0.0,0.0,0.0,0.0,1,1,0
82,'1',1,1,11,4.415,0.342,0.0,0.0,0.0,0.0,1,1,0
84,'1',1,1,11,5.478,0.348,0.0,0.0,0.0,0.0,1,1,0
85,'1',1,1,11,8.647,2.423,0.0,0.0,0.0,0.0,1,1,0
88,'1',1,1,11,-0.164,0.006,0.0,0.0,0.0,0.0,1,1,0
89,'1',1,1,11,12.366,0.013,0.0,0.0,0.0,0.0,1,1,0
92,'1',1,1,11,2.865,-0.171,0.0,0.0,0.0,0.0,1,1,0
94,'1',1,1,11,1.373,1.588,0.0,0.0,0.0,0.0,1,1,0
96,'99',1,1,4,14.017,24.894,0.0,0.0,0.0,0.0,1,1,0
97,'99',1,1,4,11.911,16.007,0.0,0.0,0.0,0.0,1,1,0
99,'1',1,1,4,4.428,11.386,0.0,0.0,0.0,0.0,1,1,0
100,'1',1,1,4,5.06,13.283,0.0,0.0,0.0,0.0,1,1,0
101,'99',1,1,4,65.002,12.39,0.0,0.0,0.0,0.0,1,1,0
102,'99',0,1,4,1.156,-45.892,0.0,0.0,0.0,0.0,1,1,0
105,'1',1,1,4,2.707,0.999,0.0,0.0,0.0,0.0,1,1,0
106,'1',1,1,4,3.466,1.455,0.0,0.0,0.0,0.0,1,1,0
108,'1',1,1,4,4.871,1.619,0.0,0.0,0.0,0.0,1,1,0
108,'99',1,1,4,1.306,-10.216,0.0,0.0,0.0,0.0,1,1,0
109,'1',1,1,4,5.206,1.366,0.0,0.0,0.0,0.0,1,1,0
110,'1',1,1,4,1.183,0.506,0.0,0.0,0.0,0.0,1,1,0
111,'1',1,1,4,2.113,0.898,0.0,0.0,0.0,0.0,1,1,0
112,'1',1,1,4,8.552,3.182,0.0,0.0,0.0,0.0,1,1,0
115,'1',1,1,4,3.043,1.094,0.0,0.0,0.0,0.0,1,1,0
116,'1',1,1,4,14.934,13.347,0.0,0.0,0.0,0.0,1,1,0
118,'1',1,1,4,3.454,1.461,0.0,0.0,0.0,0.0,1,1,0
120,'1',1,1,4,6.085,1.986,0.0,0.0,0.0,0.0,1,1,0
121,'1',1,1,4,0.0,0.0,0.0,0.0,0.0,0.0,1,1,0
128,'1',1,1,4,0.633,0.24,0.0,0.0,0.0,0.0,1,1,0
129,'1',1,1,4,2.84,1.967,0.0,0.0,0.0,0.0,1,1,0
131,'1',1,1,4,50.604,24.669,0.0,0.0,0.0,0.0,1,1,0
132,'1',1,1,4,3.308,1.145,0.0,0.0,0.0,0.0,1,1,0
133,'1',1,1,4,1.214,0.38,0.0,0.0,0.0,0.0,1,1,0
134,'1',1,1,4,33.525,15.826,0.0,0.0,0.0,0.0,1,1,0
135,'1',1,1,4,3.795,1.347,0.0,0.0,0.0,0.0,1,1,0
136,'1',1,1,4,1.758,0.569,0.0,0.0,0.0,0.0,1,1,0
137,'1',1,1,4,6.686,2.22,0.0,0.0,0.0,0.0,1,1,0
137,'99',0,1,4,28.183,-12.764,0.0,0.0,0.0,0.0,1,1,0
138,'1',1,1,4,0.272,0.063,0.0,0.0,0.0,0.0,1,1,0
140,'1',1,1,4,1.758,1.05,0.0,0.0,0.0,0.0,1,1,0
141,'1',1,1,4,3.688,0.424,0.0,0.0,0.0,0.0,1,1,0
142,'1',1,1,4,5.136,1.746,0.0,0.0,0.0,0.0,1,1,0
143,'99',0,1,4,0.426,1.249,0.0,0.0,0.0,0.0,1,1,0
145,'99',0,1,4,53.244,16.969,0.0,0.0,0.0,0.0,1,1,0
146,'1',1,1,4,1.012,0.253,0.0,0.0,0.0,0.0,1,1,0
147,'1',1,1,4,0.677,0.31,0.0,0.0,0.0,0.0,1,1,0
148,'1',1,1,4,4.131,1.765,0.0,0.0,0.0,0.0,1,1,0
149,'99',0,1,4,9.227,-8.412,0.0,0.0,0.0,0.0,1,1,0
150,'1',1,1,4,3.043,0.955,0.0,0.0,0.0,0.0,1,1,0
151,'1',1,1,4,11.961,19.109,0.0,0.0,0.0,0.0,1,1,0
152,'1',1,1,4,4.428,8.856,0.0,0.0,0.0,0.0,1,1,0
153,'1',1,1,4,5.75,1.936,0.0,0.0,0.0,0.0,1,1,0
157,'1',1,1,4,1.86,0.791,0.0,0.0,0.0,0.0,1,1,0
159,'1',1,1,4,9.204,0.348,0.0,0.0,0.0,0.0,1,1,0
160,'1',1,1,4,7.103,1.683,0.0,0.0,0.0,0.0,1,1,0
161,'1',1,1,4,4.036,1.752,0.0,0.0,0.0,0.0,1,1,0
162,'1',1,1,4,5.256,2.328,0.0,0.0,0.0,0.0,1,1,0
163,'1',1,1,4,0.538,0.051,0.0,0.0,0.0,0.0,1,1,0
165,'1',1,1,4,0.417,0.247,0.0,0.0,0.0,0.0,1,1,0
166,'1',1,1,4,0.335,0.196,0.0,0.0,0.0,0.0,1,1,0
168,'1',1,1,4,6.56,2.189,0.0,0.0,0.0,0.0,1,1,0
169,'1',1,1,4,1.626,0.588,0.0,0.0,0.0,0.0,1,1,0
171,'1',1,1,4,3.384,0.481,0.0,0.0,0.0,0.0,1,1,0
173,'1',1,1,4,4.592,1.714,0.0,0.0,0.0,0.0,1,1,0
175,'1',1,1,4,1.891,0.721,0.0,0.0,0.0,0.0,1,1,0
176,'1',1,1,4,4.061,1.442,0.0,0.0,0.0,0.0,1,1,0
179,'1',1,1,4,3.789,1.303,0.0,0.0,0.0,0.0,1,1,0
181,'1',1,1,4,2.872,1.196,0.0,0.0,0.0,0.0,1,1,0
182,'1',1,1,4,2.707,1.132,0.0,0.0,0.0,0.0,1,1,0
184,'1',1,1,4,2.302,0.778,0.0,0.0,0.0,0.0,1,1,0
185,'1',1,1,4,2.701,0.98,0.0,0.0,0.0,0.0,1,1,0
188,'1',1,1,4,0.474,0.234,0.0,0.0,0.0,0.0,1,1,0
189,'1',1,1,4,0.81,0.367,0.0,0.0,0.0,0.0,1,1,0
191,'1',1,1,4,2.91,1.094,0.0,0.0,0.0,0.0,1,1,0
193,'1',1,1,4,2.91,1.031,0.0,0.0,0.0,0.0,1,1,0
194,'1',1,1,4,7.711,2.505,0.0,0.0,0.0,0.0,1,1,0
195,'99',0,1,4,18.155,5.789,0.0,0.0,0.0,0.0,1,1,0
196,'1',1,1,4,0.0,0.0,0.0,0.0,0.0,0.0,1,1,0
198,'1',1,1,4,2.435,0.873,0.0,0.0,0.0,0.0,1,1,0
200,'1',1,1,4,3.359,0.936,0.0,0.0,0.0,0.0,1,1,0
201,'1',1,1,4,4.693,1.271,0.0,0.0,0.0,0.0,1,1,0
202,'1',1,1,4,1.36,0.354,0.0,0.0,0.0,0.0,1,1,0
204,'1',1,1,4,7.477,2.948,0.0,0.0,0.0,0.0,1,1,0
205,'1',1,1,4,7.091,3.062,0.0,0.0,0.0,0.0,1,1,0
206,'1',1,1,4,2.612,1.075,0.0,0.0,0.0,0.0,1,1,0
207,'1',1,1,4,1.626,0.658,0.0,0.0,0.0,0.0,1,1,0
208,'99',1,1,4,21.739,-1.068,0.0,0.0,0.0,0.0,1,1,0
209,'1',1,1,4,0.335,0.19,0.0,0.0,0.0,0.0,1,1,0
213,'99',1,1,9,30.214,10.515,0.0,0.0,0.0,0.0,1,1,0
214,'99',1,1,9,172.707,14.021,0.0,0.0,0.0,0.0,1,1,0
216,'99',1,1,9,48.957,28.496,0.0,0.0,0.0,0.0,1,1,0
220,'99',0,1,9,659.876,-1.015,0.0,0.0,0.0,0.0,1,1,0
221,'1',1,1,9,20.343,32.937,0.0,0.0,0.0,0.0,1,1,0
222,'1',1,1,9,29.325,58.239,0.0,0.0,0.0,0.0,1,1,0
223,'1',1,1,9,37.953,75.906,0.0,0.0,0.0,0.0,1,1,0
224,'1',1,1,9,37.953,75.906,0.0,0.0,0.0,0.0,1,1,0
224,'99',1,1,9,635.444,104.209,0.0,0.0,0.0,0.0,1,1,0
225,'99',1,1,9,236.599,53.505,0.0,0.0,0.0,0.0,1,1,0
226,'99',1,1,9,45.104,37.165,0.0,0.0,0.0,0.0,1,1,0
227,'99',1,1,9,43.052,-34.374,0.0,0.0,0.0,0.0,1,1,0
228,'1',1,1,9,24.543,-1.708,0.0,0.0,0.0,0.0,1,1,0
229,'99',1,1,9,8.884,16.153,0.0,0.0,0.0,0.0,1,1,0
231,'99',1,1,9,94.939,35.171,0.0,0.0,0.0,0.0,1,1,0
234,'99',1,1,9,4.702,24.29,0.0,0.0,0.0,0.0,1,1,0
235,'99',1,1,9,31.327,25.56,0.0,0.0,0.0,0.0,1,1,0
236,'1',1,1,9,4.871,12.651,0.0,0.0,0.0,0.0,1,1,0
236,'99',1,1,9,196.587,-8.092,0.0,0.0,0.0,0.0,1,1,0
237,'1',1,1,9,2.435,0.633,0.0,0.0,0.0,0.0,1,1,0
238,'1',1,1,9,1.436,0.702,0.0,0.0,0.0,0.0,1,1,0
239,'1',1,1,9,0.999,0.253,0.0,0.0,0.0,0.0,1,1,0
240,'1',1,1,9,2.809,0.696,0.0,0.0,0.0,0.0,1,1,0
241,'1',1,1,9,2.935,0.253,0.0,0.0,0.0,0.0,1,1,0
241,'99',1,1,9,2.252,-0.176,0.0,0.0,0.0,0.0,1,1,0
242,'1',1,1,9,8.786,4.909,0.0,0.0,0.0,0.0,1,1,0
243,'1',1,1,9,12.347,7.103,0.0,0.0,0.0,0.0,1,1,0
245,'99',1,1,9,50.587,5.811,0.0,0.0,0.0,0.0,1,1,0
246,'1',1,1,9,12.651,25.302,0.0,0.0,0.0,0.0,1,1,0
247,'1',1,1,9,12.923,13.043,0.0,0.0,0.0,0.0,1,1,0
248,'1',1,1,9,23.088,7.597,0.0,0.0,0.0,0.0,1,1,0
249,'99',1,1,9,52.549,6.852,0.0,0.0,0.0,0.0,1,1,0
250,'1',1,1,9,0.095,0.424,0.0,0.0,0.0,0.0,1,1,0
251,'1',1,1,9,11.715,7.749,0.0,0.0,0.0,0.0,1,1,0
252,'1',1,1,9,8.913,3.878,0.0,0.0,0.0,0.0,1,1,0
253,'1',1,1,9,5.49,0.633,0.0,0.0,0.0,0.0,1,1,0
253,'99',1,1,9,5.003,-3.304,0.0,0.0,0.0,0.0,1,1,0
254,'99',1,1,9,44.453,12.961,0.0,0.0,0.0,0.0,1,1,0
256,'1',1,1,9,3.555,0.759,0.0,0.0,0.0,0.0,1,1,0
257,'1',1,1,9,3.555,0.822,0.0,0.0,0.0,0.0,1,1,0
257,'99',1,1,9,14.113,9.037,0.0,0.0,0.0,0.0,1,1,0
258,'1',1,1,9,2.246,0.19,0.0,0.0,0.0,0.0,1,1,0
259,'1',1,1,9,1.499,0.38,0.0,0.0,0.0,0.0,1,1,0
260,'1',1,1,9,2.246,0.38,0.0,0.0,0.0,0.0,1,1,0
261,'1',1,1,9,1.309,0.253,0.0,0.0,0.0,0.0,1,1,0
262,'99',1,1,9,1.622,-5.368,0.0,0.0,0.0,0.0,1,1,0
263,'1',1,1,9,0.746,0.19,0.0,0.0,0.0,0.0,1,1,0
264,'1',1,1,9,0.253,0.063,0.0,0.0,0.0,0.0,1,1,0
266,'1',1,1,5,1.879,2.087,0.0,0.0,0.0,0.0,1,1,0
267,'1',1,1,5,9.292,4.421,0.0,0.0,0.0,0.0,1,1,0
269,'1',1,1,5,-5.427,0.961,0.0,0.0,0.0,0.0,1,1,0
270,'1',1,1,5,4.042,1.91,0.0,0.0,0.0,0.0,1,1,0
272,'1',1,1,5,19.4,3.675,0.0,0.0,0.0,0.0,1,1,0
273,'1',1,1,5,2.378,1.746,0.0,0.0,0.0,0.0,1,1,0
274,'1',1,1,5,9.823,2.638,0.0,0.0,0.0,0.0,1,1,0
277,'99',1,1,5,102.126,49.992,0.0,0.0,0.0,0.0,1,1,0
279,'1',1,1,5,4.675,1.948,0.0,0.0,0.0,0.0,1,1,0
281,'1',1,1,5,1.29,1.91,0.0,0.0,0.0,0.0,1,1,0
284,'1',1,1,5,3.764,1.221,0.0,0.0,0.0,0.0,1,1,0
284,'99',1,1,5,4.199,3.5,0.0,0.0,0.0,0.0,1,1,0
285,'1',1,1,5,1.36,1.259,0.0,0.0,0.0,0.0,1,1,0
286,'1',1,1,5,0.898,1.79,0.0,0.0,0.0,0.0,1,1,0
287,'1',1,1,5,0.86,1.676,0.0,0.0,0.0,0.0,1,1,0
289,'1',1,1,5,3.808,2.049,0.0,0.0,0.0,0.0,1,1,0
289,'99',1,1,5,1.346,-1.765,0.0,0.0,0.0,0.0,1,1,0
...
0 / END OF LOAD DATA BEGIN FIXED SHUNT DATA
2,'1',1,0.0,15.498
23,'1',1,0.0,-120.31
36,'1',1,0.0,-4.438
58,'1',1,0.0,10.592
81,'1',1,0.0,21.502
98,'1',1,0.0,-24.285
100,'1',1,0.0,4.571
102,'1',1,0.0,-43.607
133,'1',1,0.0,-1.321
137,'1',1,0.0,-13.204
143,'1',1,0.0,1.197
145,'1',1,0.0,16.36
149,'1',1,0.0,-8.091
156,'1',1,0.0,40.892
195,'1',1,0.0,5.562
220,'1',1,0.0,-1.094
304,'1',1,0.0,2.218
348,'1',1,0.0,5.534
357,'1',1,0.0,-30.025
363,'1',1,0.0,24.399
364,'1',1,0.0,-71.188
367,'1',1,0.0,60.608
376,'1',1,0.0,-9.534
380,'1',1,0.0,11.017
386,'1',1,0.0,-5.842
390,'1',1,0.0,12.518
428,'1',1,0.0,-7.317
442,'1',1,0.0,-7.663
443,'1',1,0.0,12.284
444,'1',1,0.0,19.281
460,'1',1,0.0,32.216
525,'1',1,0.0,100.748
576,'1',1,0.0,-63.285
591,'1',1,0.0,22.609
595,'1',1,0.0,6.261
623,'1',1,0.0,-2.498
624,'1',1,0.0,6.887
631,'1',1,0.0,30.406
639,'1',1,0.0,-66.624
640,'1',1,0.0,-75.05
642,'1',1,0.0,88.396
653,'1',1,0.0,26.664
684,'1',1,0.0,0.059
696,'1',1,0.0,-1.903
697,'1',1,0.0,-37.362
743,'1',1,0.0,-1.15
748,'1',1,0.0,-19.101
791,'1',1,0.0,0.336
794,'1',1,0.0,-2.22
0 / END OF FIXED SHUNT DATA BEGIN GENERATOR DATA
6,'1',0.0,0.0,33.333,-33.333,0.9534,0,100.0,0.0,1.0,0.0,0.0,1.0,0,100.0,63.0,28.5,1,1.0,0,1.0,0,1.0,0,1.0,0,1.0
23,'98',5.515,85.914,183.0,-183.0,1.01,0,100.0,0.0,1.0,0.0,0.0,1.0,1,100.0,526.316,2.0,1,1.0,0,1.0,0,1.0,0,1.0,0,1.0
25,'1',0.0,0.0,22.5,-22.5,0.9534,0,67.5,0.0,0.165,0.0,0.0,1.0,0,100.0,280.0,2.0,1,1.0,0,1.0,0,1.0,0,1.0,0,1.0
25,'2',0.0,0.0,22.5,-22.5,0.9534,0,67.5,0.0,0.165,0.0,0.0,1.0,0,100.0,60.43,14.25,1,1.0,0,1.0,0,1.0,0,1.0,0,1.0
31,'99',63.355,12.219,160.0,-160.0,1.0099,0,100.0,0.0,1.0,0.0,0.0,1.0,1,100.0,136.038,34.685,1,1.0,0,1.0,0,1.0,0,1.0,0,1.0
33,'1',0.0,0.0,19.29,-19.29,1.0087,0,57.87,0.0,0.148,0.0047,0.0939,1.0,0,100.0,46.2,11.4,1,1.0,0,1.0,0,1.0,0,1.0,0,1.0
35,'1',0.0,0.0,33.127,-33.127,1.0101,0,99.38,0.0,0.178,0.0045,0.0928,1.0,0,100.0,288.0,2.0,1,1.0,0,1.0,0,1.0,0,1.0,0,1.0
35,'2',0.0,0.0,23.05,-23.05,1.0101,0,69.15,0.0,0.135,0.002,0.0585,1.0,0,100.0,300.0,2.0,1,1.0,0,1.0,0,1.0,0,1.0,0,1.0
35,'3',0.0,0.0,16.237,-16.237,1.0101,0,48.71,0.0,0.193,0.0016,0.0541,1.0,0,100.0,40.14,25.14,1,1.0,0,1.0,0,1.0,0,1.0,0,1.0
43,'99',2.2,-4.429,160.0,-160.0,1.0131,0,100.0,0.0,1.0,0.0,0.0,1.0,1,100.0,301.053,1.129,1,1.0,0,1.0,0,1.0,0,1.0,0,1.0
45,'1',0.0,0.0,67.75,-67.75,1.0087,0,203.25,0.0,0.226,0.0094,0.1876,1.0,0,100.0,173.25,50.54,1,1.0,0,1.0,0,1.0,0,1.0,0,1.0
46,'99',21.036,-16.017,160.0,-160.0,1.0048,0,100.0,0.0,1.0,0.0,0.0,1.0,1,100.0,55.716,11.516,1,1.0,0,1.0,0,1.0,0,1.0,0,1.0
47,'99',27.895,-10.93,160.0,-160.0,1.0131,0,100.0,0.0,1.0,0.0,0.0,1.0,1,100.0,68.734,15.271,1,1.0,0,1.0,0,1.0,0,1.0,0,1.0
52,'99',50.541,-51.158,160.0,-160.0,1.0051,0,100.0,0.0,1.0,0.0,0.0,1.0,1,100.0,111.717,27.67,1,1.0,0,1.0,0,1.0,0,1.0,0,1.0
55,'99',63.335,-13.719,160.0,-160.0,1.0108,0,100.0,0.0,1.0,0.0,0.0,1.0,1,100.0,136.0,34.674,1,1.0,0,1.0,0,1.0,0,1.0,0,1.0
59,'1',5.833,66.11,66.11,-103.578,1.04,0,100.0,0.0,1.0,0.0,0.0,1.0,1,100.0,297.895,3.833,1,1.0,0,1.0,0,1.0,0,1.0,0,1.0
65,'1',9.393,-1.464,92.232,-2.97,1.0166,0,27.8,0.0,0.32,0.0,0.0,1.0,1,100.0,265.263,7.393,1,1.0,0,1.0,0,1.0,0,1.0,0,1.0
65,'2',0.0,0.0,9.267,-9.267,1.0166,0,27.8,0.0,0.32,0.0,0.0,1.0,0,100.0,25.2,4.75,1,1.0,0,1.0,0,1.0,0,1.0,0,1.0
71,'99',27.458,-9.513,160.0,-160.0,1.0159,0,100.0,0.0,1.0,0.0,0.0,1.0,1,100.0,67.904,15.032,1,1.0,0,1.0,0,1.0,0,1.0,0,1.0
80,'1',0.0,0.0,9.267,-9.267,1.0166,0,27.8,0.0,0.32,0.0,0.0,1.0,0,100.0,26.25,4.75,1,1.0,0,1.0,0,1.0,0,1.0,0,1.0
80,'2',0.0,0.0,9.267,-9.267,1.0166,0,27.8,0.0,0.32,0.0,0.0,1.0,0,100.0,25.2,2.0,1,1.0,0,1.0,0,1.0,0,1.0,0,1.0
86,'99',35.616,-2.084,160.0,-160.0,1.0107,0,100.0,0.0,1.0,0.0,0.0,1.0,1,100.0,83.388,19.498,1,1.0,0,1.0,0,1.0,0,1.0,0,1.0
87,'1',0.0,0.0,95.526,-95.526,1.0051,0,100.0,0.0,1.0,0.0,0.0,1.0,0,100.0,274.737,2.0,1,1.0,0,1.0,0,1.0,0,1.0,0,1.0
90,'99',23.082,14.615,160.0,-160.0,1.0078,0,100.0,0.0,1.0,0.0,0.0,1.0,1,100.0,59.599,12.637,1,1.0,0,1.0,0,1.0,0,1.0,0,1.0
93,'99',5.416,-63.765,160.0,-160.0,1.0161,0,100.0,0.0,1.0,0.0,0.0,1.0,1,100.0,265.263,2.965,1,1.0,0,1.0,0,1.0,0,1.0,0,1.0
98,'99',50.268,-25.234,33.333,-33.333,1.01935,0,100.0,0.0,1.0,0.0,0.0,1.0,0,100.0,65.268,50.268,1,1.0,0,1.0,0,1.0,0,1.0,0,1.0
99,'1',0.0,0.0,52.613,-1.0,1.02455,0,163.45,0.0,0.18,0.0,0.0,1.0,0,100.0,151.316,70.0,1,1.0,0,1.0,0,1.0,0,1.0,0,1.0
100,'1',0.0,0.0,52.613,-1.0,1.02455,0,148.19,0.0,0.18,0.0,0.0,1.0,0,100.0,151.316,70.0,1,1.0,0,1.0,0,1.0,0,1.0,0,1.0
100,'99',13.104,4.798,33.333,-33.333,1.02455,0,100.0,0.0,1.0,0.0,0.0,1.0,0,100.0,28.104,13.104,1,1.0,0,1.0,0,1.0,0,1.0,0,1.0
105,'97',6.0,-43.92,43.92,-43.92,1.0,0,100.0,0.0,1.0,0.0,0.0,1.0,1,100.0,126.316,5.0,1,1.0,0,1.0,0,1.0,0,1.0,0,1.0
116,'1',0.0,0.0,50.325,-40.0,1.02455,0,147.7,0.0,0.18,0.0,0.0,1.0,0,100.0,144.737,32.0,1,1.0,0,1.0,0,1.0,0,1.0,0,1.0
117,'1',0.0,0.0,37.667,-37.667,1.02455,0,113.0,0.0,0.18,0.0,0.0,1.0,0,100.0,113.0,32.0,1,1.0,0,1.0,0,1.0,0,1.0,0,1.0
121,'1',0.0,0.0,45.0,-45.0,1.02455,0,135.0,0.0,0.18,0.0,0.0,1.0,0,100.0,135.0,35.0,1,1.0,0,1.0,0,1.0,0,1.0,0,1.0
131,'1',0.0,0.0,8.333,-8.333,1.02182,0,25.0,0.0,0.2,0.0,0.0,1.0,0,100.0,25.0,10.0,1,1.0,0,1.0,0,1.0,0,1.0,0,1.0
131,'2',0.0,0.0,8.333,-8.333,1.02182,0,25.0,0.0,0.2,0.0,0.0,1.0,0,100.0,25.0,10.0,1,1.0,0,1.0,0,1.0,0,1.0,0,1.0
131,'3',0.0,0.0,11.438,-11.438,1.02182,0,30.0,0.0,0.2,0.0,0.0,1.0,0,100.0,32.895,10.0,1,1.0,0,1.0,0,1.0,0,1.0,0,1.0
131,'4',0.0,0.0,9.15,-9.15,1.02182,0,25.0,0.0,0.2,0.0,0.0,1.0,0,100.0,26.316,10.0,1,1.0,0,1.0,0,1.0,0,1.0,0,1.0
133,'99',2.396,-1.381,33.333,-33.333,1.0226,0,100.0,0.0,1.0,0.0,0.0,1.0,0,100.0,295.0,2.396,1,1.0,0,1.0,0,1.0,0,1.0,0,1.0
134,'1',6.0,16.667,16.667,-16.667,1.0,0,50.0,0.0,0.2,0.0,0.0,1.0,1,100.0,52.632,5.0,1,1.0,0,1.0,0,1.0,0,1.0,0,1.0
151,'1',0.0,0.0,43.92,-1.0,1.02455,0,120.0,0.0,0.18,0.0,0.0,1.0,0,100.0,126.316,70.0,1,1.0,0,1.0,0,1.0,0,1.0,0,1.0
151,'2',120.0,43.92,43.92,-1.0,1.02455,0,120.0,0.0,0.18,0.0,0.0,1.0,1,100.0,126.316,58.333,1,1.0,0,1.0,0,1.0,0,1.0,0,1.0
151,'97',6.0,43.92,43.92,-43.92,1.02455,0,100.0,0.0,1.0,0.0,0.0,1.0,1,100.0,126.316,5.0,1,1.0,0,1.0,0,1.0,0,1.0,0,1.0
152,'1',149.993,54.897,54.897,-1.0,1.02455,0,144.0,0.0,0.18,0.0,0.0,1.0,1,100.0,157.887,79.0,1,1.0,0,1.0,0,1.0,0,1.0,0,1.0
152,'2',0.0,0.0,36.667,-36.667,1.02455,0,110.0,0.0,0.18,0.0,0.0,1.0,0,100.0,110.0,79.0,1,1.0,0,1.0,0,1.0,0,1.0,0,1.0
156,'99',47.466,43.051,33.333,-33.333,1.02608,0,100.0,0.0,1.0,0.0,0.0,1.0,0,100.0,62.466,47.466,1,1.0,0,1.0,0,1.0,0,1.0,0,1.0
159,'99',2.2,46.761,160.0,-160.0,1.0193,0,100.0,0.0,1.0,0.0,0.0,1.0,1,100.0,308.421,0.037,1,1.0,0,1.0,0,1.0,0,1.0,0,1.0
179,'97',11.0,-36.295,43.92,-43.92,1.0,0,100.0,0.0,1.0,0.0,0.0,1.0,1,100.0,126.316,10.0,1,1.0,0,1.0,0,1.0,0,1.0,0,1.0
190,'99',33.122,77.435,160.0,-160.0,1.033,0,100.0,0.0,1.0,0.0,0.0,1.0,1,100.0,83.856,18.133,1,1.0,0,1.0,0,1.0,0,1.0,0,1.0
221,'1',0.0,0.0,123.333,-123.333,1.02864,0,370.0,0.0,0.21,0.0,0.0,1.0,0,100.0,370.0,240.0,1,1.0,0,1.0,0,1.0,0,1.0,0,1.0
221,'2',0.0,0.0,123.333,-123.333,1.02864,0,370.0,0.0,0.21,0.0,0.0,1.0,0,100.0,370.0,240.0,1,1.0,0,1.0,0,1.0,0,1.0,0,1.0
221,'3',0.0,0.0,157.837,-23.75,1.02864,0,449.45,0.0,0.21,0.0,0.0,1.0,0,100.0,453.947,240.0,1,1.0,0,1.0,0,1.0,0,1.0,0,1.0
222,'1',462.5,146.867,169.275,-19.0,1.02864,0,455.56,0.0,0.21,0.0,0.0,1.0,1,100.0,486.842,240.0,1,1.0,0,1.0,0,1.0,0,1.0,0,1.0
222,'2',0.0,0.0,135.42,-19.0,1.02864,0,397.31,0.0,0.21,0.0,0.0,1.0,0,100.0,389.474,240.0,1,1.0,0,1.0,0,1.0,0,1.0,0,1.0
223,'1',361.728,-10.733,190.0,-19.0,1.012,0,616.84,0.0,0.235,0.0,0.0,1.0,1,100.0,1148.453,50.876,1,1.0,0,1.0,0,1.0,0,1.0,0,1.0
223,'2',361.728,-10.733,190.0,-19.0,1.012,0,616.84,0.0,0.235,0.0,0.0,1.0,1,100.0,1148.453,50.876,1,1.0,0,1.0,0,1.0,0,1.0,0,1.0
223,'3',361.728,-10.733,190.0,-19.0,1.012,0,616.84,0.0,0.235,0.0,0.0,1.0,1,100.0,1148.453,50.876,1,1.0,0,1.0,0,1.0,0,1.0,0,1.0
224,'1',0.0,0.0,169.275,-19.0,1.012,0,451.84,0.0,0.21,0.0,0.0,1.0,0,100.0,486.842,240.0,1,1.0,0,1.0,0,1.0,0,1.0,0,1.0
224,'2',425.0,63.503,155.55,-19.0,1.012,0,416.51,0.0,0.21,0.0,0.0,1.0,1,100.0,447.368,240.0,1,1.0,0,1.0,0,1.0,0,1.0,0,1.0
224,'3',425.0,63.503,155.55,-19.0,1.012,0,416.51,0.0,0.21,0.0,0.0,1.0,1,100.0,447.368,240.0,1,1.0,0,1.0,0,1.0,0,1.0,0,1.0
233,'99',78.727,-48.279,160.0,-160.0,1.0041,0,100.0,0.0,1.0,0.0,0.0,1.0,1,100.0,186.779,43.1,1,1.0,0,1.0,0,1.0,0,1.0,0,1.0
236,'1',0.0,0.0,50.325,-15.0,1.02045,0,166.81,0.0,0.18,0.0,0.0,1.0,0,100.0,144.737,91.667,1,1.0,0,1.0,0,1.0,0,1.0,0,1.0
236,'98',3.0,77.933,183.0,-183.0,1.02045,0,120.0,0.0,0.18,0.0,0.0,1.0,1,100.0,526.316,2.0,1,1.0,0,1.0,0,1.0,0,1.0,0,1.0
246,'1',437.5,65.266,160.125,-19.0,1.01364,0,477.9,0.0,0.21,0.0,0.0,1.0,1,100.0,460.526,240.0,1,1.0,0,1.0,0,1.0,0,1.0,0,1.0
250,'1',0.0,0.0,10.98,-10.98,1.02182,0,30.0,0.0,0.2,0.0,0.0,1.0,0,100.0,31.579,2.0,1,1.0,0,1.0,0,1.0,0,1.0,0,1.0
256,'1',0.0,0.0,92.964,-92.964,1.02455,0,0.43,0.0,0.2,0.0,0.0,1.0,0,100.0,267.368,2.0,1,1.0,0,1.0,0,1.0,0,1.0,0,1.0
267,'99',4.796,5.984,160.0,-160.0,1.01,0,100.0,0.0,1.0,0.0,0.0,1.0,1,100.0,309.474,2.626,1,1.0,0,1.0,0,1.0,0,1.0,0,1.0
268,'99',178.005,146.667,160.0,-160.0,1.018,0,100.0,0.0,1.0,0.0,0.0,1.0,1,100.0,422.316,97.451,1,1.0,0,1.0,0,1.0,0,1.0,0,1.0
272,'99',27.868,34.78,160.0,-160.0,1.0194,0,100.0,0.0,1.0,0.0,0.0,1.0,1,100.0,78.395,15.257,1,1.0,0,1.0,0,1.0,0,1.0,0,1.0
275,'99',2.669,-48.855,160.0,-160.0,1.0185,0,100.0,0.0,1.0,0.0,0.0,1.0,1,100.0,76.902,1.461,1,1.0,0,1.0,0,1.0,0,1.0,0,1.0
281,'99',3.254,-0.685,160.0,-160.0,1.0102,0,100.0,0.0,1.0,0.0,0.0,1.0,1,100.0,286.316,1.782,1,1.0,0,1.0,0,1.0,0,1.0,0,1.0
293,'1',0.0,0.0,76.667,-76.667,1.0259,0,230.0,0.0023,0.168,0.0,0.0,1.025,0,100.0,173.25,117.8,1,1.0,0,1.0,0,1.0,0,1.0,0,1.0
296,'1',0.0,0.0,76.667,-76.667,1.0259,0,230.0,0.0023,0.168,0.0,0.0,1.025,0,100.0,173.25,117.8,1,1.0,0,1.0,0,1.0,0,1.0,0,1.0
298,'99',7.272,5.501,160.0,-160.0,1.0278,0,100.0,0.0,1.0,0.0,0.0,1.0,1,100.0,29.593,3.981,1,1.0,0,1.0,0,1.0,0,1.0,0,1.0
303,'97',69.986,-8.792,43.92,-43.92,1.0,0,100.0,0.0,1.0,0.0,0.0,1.0,1,100.0,126.316,5.0,1,1.0,0,1.0,0,1.0,0,1.0,0,1.0
304,'99',29.434,2.277,33.333,-33.333,1.01312,0,100.0,0.0,1.0,0.0,0.0,1.0,0,100.0,44.434,29.434,1,1.0,0,1.0,0,1.0,0,1.0,0,1.0
305,'1',0.0,0.0,76.667,-76.667,1.0259,0,230.0,0.0022,0.1728,0.0,0.0,1.025,0,100.0,173.25,117.8,1,1.0,0,1.0,0,1.0,0,1.0,0,1.0
307,'99',12.136,-0.967,160.0,-160.0,1.0064,0,100.0,0.0,1.0,0.0,0.0,1.0,1,100.0,38.823,6.644,1,1.0,0,1.0,0,1.0,0,1.0,0,1.0
309,'1',0.0,0.0,147.09,-81.3,1.01,0,300.0,0.0,0.207,0.0,0.0,1.0,0,100.0,519.615,198.808,1,1.0,0,1.0,0,1.0,0,1.0,0,1.0
326,'1',0.0,0.0,76.667,-76.667,1.0259,0,230.0,0.0022,0.1728,0.0,0.0,1.025,0,100.0,173.25,117.8,1,1.0,0,1.0,0,1.0,0,1.0,0,1.0
335,'1',0.0,0.0,76.667,-76.667,1.0259,0,230.0,0.0022,0.1728,0.0,0.0,1.025,0,100.0,173.25,117.8,1,1.0,0,1.0,0,1.0,0,1.0,0,1.0
337,'99',3.483,2.101,160.0,-160.0,1.01,0,100.0,0.0,1.0,0.0,0.0,1.0,1,100.0,272.632,1.907,1,1.0,0,1.0,0,1.0,0,1.0,0,1.0
342,'1',0.0,0.0,99.918,-99.918,1.03,0,100.0,0.0,1.0,0.0,0.0,1.0,0,100.0,287.368,2.0,1,1.0,0,1.0,0,1.0,0,1.0,0,1.0
345,'99',6.811,5.062,160.0,-160.0,1.0278,0,100.0,0.0,1.0,0.0,0.0,1.0,1,100.0,28.717,3.729,1,1.0,0,1.0,0,1.0,0,1.0,0,1.0
350,'99',62.364,-15.46,160.0,-160.0,1.0018,0,100.0,0.0,1.0,0.0,0.0,1.0,1,100.0,134.156,34.142,1,1.0,0,1.0,0,1.0,0,1.0,0,1.0
352,'1',0.0,0.0,302.333,-302.333,1.0259,0,907.0,0.0038,0.22,0.0,0.0,1.0,0,100.0,254.0,2.0,1,1.0,0,1.0,0,1.0,0,1.0,0,1.0
353,'99',46.655,-95.277,160.0,-160.0,1.0063,0,100.0,0.0,1.0,0.0,0.0,1.0,1,100.0,124.492,25.542,1,1.0,0,1.0,0,1.0,0,1.0,0,1.0
357,'99',122.965,-29.975,33.333,-33.333,1.01,0,100.0,0.0,1.0,0.0,0.0,1.0,0,100.0,137.965,122.965,1,1.0,0,1.0,0,1.0,0,1.0,0,1.0
361,'99',235.695,-160.0,160.0,-160.0,1.01,0,100.0,0.0,1.0,0.0,0.0,1.0,1,100.0,526.43,129.035,1,1.0,0,1.0,0,1.0,0,1.0,0,1.0
364,'99',27.029,-71.598,33.333,-33.333,1.00286,0,100.0,0.0,1.0,0.0,0.0,1.0,0,100.0,42.029,27.029,1,1.0,0,1.0,0,1.0,0,1.0,0,1.0
370,'1',0.0,0.0,92.945,-62.0,1.01125,0,216.55,0.0,0.18,0.0,0.0,1.0,0,100.0,267.313,99.538,1,1.0,0,1.0,0,1.0,0,1.0,0,1.0
370,'2',0.0,0.0,92.945,-62.0,1.01125,0,179.0,0.0,0.18,0.0,0.0,1.0,0,100.0,267.313,99.538,1,1.0,0,1.0,0,1.0,0,1.0,0,1.0
370,'3',0.0,0.0,92.945,-75.0,1.01125,0,179.0,0.0,0.18,0.0,0.0,1.0,0,100.0,267.313,99.538,1,1.0,0,1.0,0,1.0,0,1.0,0,1.0
371,'1',0.0,0.0,65.514,-65.514,1.01125,0,179.0,0.0,0.18,0.0,0.0,1.0,0,100.0,188.421,2.0,1,1.0,0,1.0,0,1.0,0,1.0,0,1.0
373,'1',0.0,0.0,20.13,-20.13,1.01909,0,58.99,0.0,0.2,0.0,0.0,1.0,0,100.0,57.895,26.0,1,1.0,0,1.0,0,1.0,0,1.0,0,1.0
374,'1',0.0,0.0,18.333,-18.333,1.01909,0,55.0,0.0,0.2,0.0,0.0,1.0,0,100.0,55.0,26.0,1,1.0,0,1.0,0,1.0,0,1.0,0,1.0
375,'1',0.0,0.0,107.604,-107.604,1.02182,0,0.36,0.0,0.2,0.0,0.0,1.0,0,100.0,309.474,2.0,1,1.0,0,1.0,0,1.0,0,1.0,0,1.0
376,'1',0.0,0.0,9.516,-9.516,1.02727,0,26.0,0.0,0.2,0.0,0.0,1.0,0,100.0,27.368,2.0,1,1.0,0,1.0,0,1.0,0,1.0,0,1.0
376,'99',3.293,-10.061,33.333,-33.333,1.02727,0,100.0,0.0,1.0,0.0,0.0,1.0,0,100.0,261.0,3.293,1,1.0,0,1.0,0,1.0,0,1.0,0,1.0
380,'99',18.035,11.613,33.333,-33.333,1.02669,0,100.0,0.0,1.0,0.0,0.0,1.0,0,100.0,33.035,18.035,1,1.0,0,1.0,0,1.0,0,1.0,0,1.0
384,'1',0.0,0.0,6.588,-6.588,1.02182,0,18.0,0.0,0.2,0.0,0.0,1.0,0,100.0,18.947,2.0,1,1.0,0,1.0,0,1.0,0,1.0,0,1.0
385,'1',0.0,0.0,8.052,-8.052,1.02455,0,22.0,0.0,0.2,0.0,0.0,1.0,0,100.0,23.158,2.0,1,1.0,0,1.0,0,1.0,0,1.0,0,1.0
390,'99',13.078,13.511,33.333,-33.333,1.0389,0,100.0,0.0,1.0,0.0,0.0,1.0,0,100.0,28.078,13.078,1,1.0,0,1.0,0,1.0,0,1.0,0,1.0
391,'1',0.0,0.0,108.336,-108.336,1.02182,0,0.24,0.0,0.2,0.0,0.0,1.0,0,100.0,311.579,2.0,1,1.0,0,1.0,0,1.0,0,1.0,0,1.0
395,'1',0.0,0.0,97.722,-97.722,1.02455,0,2.0,0.0,0.2,0.0,0.0,1.0,0,100.0,281.053,2.0,1,1.0,0,1.0,0,1.0,0,1.0,0,1.0
401,'1',0.0,0.0,94.794,-94.794,1.02182,0,1.0,0.0,0.2,0.0,0.0,1.0,0,100.0,272.632,2.0,1,1.0,0,1.0,0,1.0,0,1.0,0,1.0
402,'1',0.0,0.0,96.258,-96.258,1.02455,0,1.08,0.0,0.2,0.0,0.0,1.0,0,100.0,276.842,2.0,1,1.0,0,1.0,0,1.0,0,1.0,0,1.0
408,'1',0.0,0.0,107.97,-107.97,1.02455,0,0.12,0.0,0.2,0.0,0.0,1.0,0,100.0,310.526,2.0,1,1.0,0,1.0,0,1.0,0,1.0,0,1.0
414,'1',0.0,0.0,100.65,-100.65,1.02182,0,9.0,0.0,0.2,0.0,0.0,1.0,0,100.0,289.474,2.0,1,1.0,0,1.0,0,1.0,0,1.0,0,1.0
416,'1',276.0,-52.164,101.016,-101.016,1.02182,0,0.24,0.0,0.2,0.0,0.0,1.0,1,100.0,290.526,2.0,1,1.0,0,1.0,0,1.0,0,1.0,0,1.0
422,'99',6.905,44.367,160.0,-160.0,1.01,0,100.0,0.0,1.0,0.0,0.0,1.0,1,100.0,123.413,3.78,1,1.0,0,1.0,0,1.0,0,1.0,0,1.0
428,'1',184.329,101.016,101.016,-101.016,1.01364,0,7.22,0.0,0.2,0.0,0.0,1.0,1,100.0,290.526,2.0,1,1.0,0,1.0,0,1.0,0,1.0,0,1.0
428,'2',0.0,0.0,97.356,-97.356,1.01364,0,5.0,0.0,0.2,0.0,0.0,1.0,0,100.0,280.0,2.0,1,1.0,0,1.0,0,1.0,0,1.0,0,1.0
428,'3',0.0,0.0,107.97,-107.97,1.01364,0,5.0,0.0,0.2,0.0,0.0,1.0,0,100.0,310.526,2.0,1,1.0,0,1.0,0,1.0,0,1.0,0,1.0
436,'99',21.763,147.176,160.0,-160.0,1.033,0,100.0,0.0,1.0,0.0,0.0,1.0,1,100.0,121.822,11.915,1,1.0,0,1.0,0,1.0,0,1.0,0,1.0
437,'99',40.897,-39.367,160.0,-160.0,1.0287,0,100.0,0.0,1.0,0.0,0.0,1.0,1,100.0,179.592,22.39,1,1.0,0,1.0,0,1.0,0,1.0,0,1.0
442,'99',2.602,-7.664,33.333,-33.333,1.00009,0,100.0,0.0,1.0,0.0,0.0,1.0,0,100.0,275.0,2.602,1,1.0,0,1.0,0,1.0,0,1.0,0,1.0
443,'99',14.367,12.357,33.333,-33.333,1.00297,0,100.0,0.0,1.0,0.0,0.0,1.0,0,100.0,29.367,14.367,1,1.0,0,1.0,0,1.0,0,1.0,0,1.0
444,'1',0.0,0.0,1.333,-1.333,1.01909,0,4.0,0.0,0.2,0.0,0.0,1.0,0,100.0,289.0,3.0,1,1.0,0,1.0,0,1.0,0,1.0,0,1.0
449,'99',11.506,-62.161,160.0,-160.0,1.0044,0,100.0,0.0,1.0,0.0,0.0,1.0,1,100.0,47.8,6.299,1,1.0,0,1.0,0,1.0,0,1.0,0,1.0
469,'1',161.311,-45.035,92.964,-92.964,1.01364,0,2.0,0.0,0.2,0.0,0.0,1.0,1,100.0,267.368,2.0,1,1.0,0,1.0,0,1.0,0,1.0,0,1.0
470,'1',0.0,0.0,11.667,-11.667,1.01637,0,35.0,0.0,0.2,0.0,0.0,1.0,0,100.0,35.0,9.0,1,1.0,0,1.0,0,1.0,0,1.0,0,1.0
470,'2',0.0,0.0,9.201,-9.201,1.01637,0,24.12,0.0,0.2,0.0,0.0,1.0,0,100.0,26.461,9.0,1,1.0,0,1.0,0,1.0,0,1.0,0,1.0
471,'1',0.0,0.0,11.667,-11.667,1.01637,0,35.0,0.0,0.2,0.0,0.0,1.0,0,100.0,35.0,9.0,1,1.0,0,1.0,0,1.0,0,1.0,0,1.0
471,'2',0.0,0.0,10.0,-10.0,1.01637,0,30.0,0.0,0.2,0.0,0.0,1.0,0,100.0,30.0,9.0,1,1.0,0,1.0,0,1.0,0,1.0,0,1.0
471,'3',0.0,0.0,9.333,-9.333,1.01637,0,28.0,0.0,0.2,0.0,0.0,1.0,0,100.0,28.0,9.0,1,1.0,0,1.0,0,1.0,0,1.0,0,1.0
474,'99',10.13,44.596,160.0,-160.0,1.0201,0,100.0,0.0,1.0,0.0,0.0,1.0,1,100.0,70.019,10.13,1,1.0,0,1.0,0,1.0,0,1.0,0,1.0
480,'99',26.436,7.594,160.0,-160.0,1.0246,0,100.0,0.0,1.0,0.0,0.0,1.0,1,100.0,65.965,14.473,1,1.0,0,1.0,0,1.0,0,1.0,0,1.0
481,'99',19.763,23.396,160.0,-160.0,1.0299,0,100.0,0.0,1.0,0.0,0.0,1.0,1,100.0,53.3,10.82,1,1.0,0,1.0,0,1.0,0,1.0,0,1.0
482,'99',44.864,23.622,160.0,-160.0,1.0301,0,100.0,0.0,1.0,0.0,0.0,1.0,1,100.0,100.941,24.561,1,1.0,0,1.0,0,1.0,0,1.0,0,1.0
483,'99',92.952,-75.833,160.0,-160.0,1.0098,0,100.0,0.0,1.0,0.0,0.0,1.0,1,100.0,306.331,50.888,1,1.0,0,1.0,0,1.0,0,1.0,0,1.0
487,'99',62.882,58.042,160.0,-160.0,1.0367,0,100.0,0.0,1.0,0.0,0.0,1.0,1,100.0,135.14,34.426,1,1.0,0,1.0,0,1.0,0,1.0,0,1.0
490,'99',35.709,25.883,160.0,-160.0,1.0344,0,100.0,0.0,1.0,0.0,0.0,1.0,1,100.0,83.565,19.549,1,1.0,0,1.0,0,1.0,0,1.0,0,1.0
494,'99',18.621,-1.683,160.0,-160.0,1.0164,0,100.0,0.0,1.0,0.0,0.0,1.0,1,100.0,83.599,10.194,1,1.0,0,1.0,0,1.0,0,1.0,0,1.0
499,'99',33.433,72.856,160.0,-160.0,1.0239,0,100.0,0.0,1.0,0.0,0.0,1.0,1,100.0,89.883,18.303,1,1.0,0,1.0,0,1.0,0,1.0,0,1.0
525,'99',188.917,104.453,33.333,-33.333,1.01822,0,100.0,0.0,1.0,0.0,0.0,1.0,0,100.0,203.917,188.917,1,1.0,0,1.0,0,1.0,0,1.0,0,1.0
549,'99',13.367,-25.98,160.0,-160.0,1.01,0,100.0,0.0,1.0,0.0,0.0,1.0,1,100.0,58.576,7.318,1,1.0,0,1.0,0,1.0,0,1.0,0,1.0
559,'1',0.0,0.0,31.015,-31.015,1.0192,0,93.044,0.0,0.157,0.0,0.0,1.0,0,100.0,80.5,31.0,1,1.0,0,1.0,0,1.0,0,1.0,0,1.0
564,'1',0.0,0.0,47.69,-11.618,1.02214,0,141.505,0.0,0.2425,0.0,0.0,1.0,0,100.0,137.159,36.178,1,1.0,0,1.0,0,1.0,0,1.0,0,1.0
565,'1',0.0,0.0,47.692,-11.62,1.02214,0,135.577,0.0,0.1428,0.0,0.0,1.0,0,100.0,137.164,38.4,1,1.0,0,1.0,0,1.0,0,1.0,0,1.0
566,'1',0.0,0.0,47.692,-11.62,1.02214,0,120.747,0.0,0.2232,0.0,0.0,1.0,0,100.0,137.164,26.42,1,1.0,0,1.0,0,1.0,0,1.0,0,1.0
567,'1',0.0,0.0,47.692,-11.62,1.02214,0,153.119,0.0,0.1325,0.0,0.0,1.0,0,100.0,137.164,13.12,1,1.0,0,1.0,0,1.0,0,1.0,0,1.0
568,'1',0.0,0.0,47.69,-11.618,1.02214,0,120.216,0.0,0.1301,0.0,0.0,1.0,0,100.0,137.159,52.077,1,1.0,0,1.0,0,1.0,0,1.0,0,1.0
569,'1',0.0,0.0,47.692,-11.62,1.02214,0,110.999,0.0,0.1214,0.0,0.0,1.0,0,100.0,137.164,23.76,1,1.0,0,1.0,0,1.0,0,1.0,0,1.0
570,'1',0.0,0.0,44.179,-44.179,1.02214,0,132.538,0.0,0.1762,0.0,0.0,1.0,0,100.0,95.0,40.98,1,1.0,0,1.0,0,1.0,0,1.0,0,1.0
571,'1',118.268,10.747,43.286,-10.545,1.02214,0,125.632,0.0,0.2248,0.0,0.0,1.0,1,100.0,124.493,41.357,1,1.0,0,1.0,0,1.0,0,1.0,0,1.0
572,'1',0.0,0.0,43.286,-10.54,1.02214,0,97.012,0.0,0.1084,0.0,0.0,1.0,0,100.0,124.493,39.82,1,1.0,0,1.0,0,1.0,0,1.0,0,1.0
573,'1',0.0,0.0,5.906,-5.906,1.01,0,12.76,0.0,1.0,0.0,0.0,1.0,0,100.0,16.985,2.0,1,1.0,0,1.0,0,1.0,0,1.0,0,1.0
576,'99',70.769,-60.662,33.333,-33.333,1.01,0,100.0,0.0,1.0,0.0,0.0,1.0,0,100.0,85.769,70.769,1,1.0,0,1.0,0,1.0,0,1.0,0,1.0
578,'1',0.0,0.0,75.03,-21.0,1.02455,0,253.76,0.0,0.18,0.0,0.0,1.0,0,100.0,215.789,135.0,1,1.0,0,1.0,0,1.0,0,1.0,0,1.0
579,'2',0.0,0.0,68.333,-68.333,1.02455,0,205.0,0.0,0.18,0.0,0.0,1.0,0,100.0,205.0,135.0,1,1.0,0,1.0,0,1.0,0,1.0,0,1.0
579,'3',0.0,0.0,84.912,-31.0,1.02455,0,232.0,0.0,0.18,0.0,0.0,1.0,0,100.0,244.211,100.0,1,1.0,0,1.0,0,1.0,0,1.0,0,1.0
579,'98',20.0,170.198,183.0,-183.0,1.02455,0,222.0,0.0,0.18,0.0,0.0,1.0,1,100.0,526.316,2.0,1,1.0,0,1.0,0,1.0,0,1.0,0,1.0
580,'1',0.0,0.0,91.616,-15.0,1.00975,0,268.92,0.0,0.18,0.0,0.0,1.0,0,100.0,263.492,90.0,1,1.0,0,1.0,0,1.0,0,1.0,0,1.0
581,'1',0.0,0.0,77.333,-77.333,1.00975,0,232.0,0.0,0.18,0.0,0.0,1.0,0,100.0,232.0,100.0,1,1.0,0,1.0,0,1.0,0,1.0,0,1.0
581,'2',0.0,0.0,91.5,-15.0,1.00975,0,268.92,0.0,0.18,0.0,0.0,1.0,0,100.0,263.158,90.0,1,1.0,0,1.0,0,1.0,0,1.0,0,1.0
587,'99',133.145,-143.378,160.0,-160.0,1.01,0,100.0,0.0,1.0,0.0,0.0,1.0,1,100.0,963.105,72.892,1,1.0,0,1.0,0,1.0,0,1.0,0,1.0
591,'99',59.949,23.116,33.333,-33.333,1.01103,0,100.0,0.0,1.0,0.0,0.0,1.0,0,100.0,74.949,59.949,1,1.0,0,1.0,0,1.0,0,1.0,0,1.0
596,'1',222.0,3.131,81.252,-19.0,1.015,0,222.0,0.0,0.18,0.0,0.0,1.0,1,100.0,233.684,90.0,1,1.0,0,1.0,0,1.0,0,1.0,0,1.0
599,'1',0.0,0.0,0.333,-0.333,1.02455,0,1.0,0.0,0.2,0.0,0.0,1.0,0,100.0,299.0,2.0,1,1.0,0,1.0,0,1.0,0,1.0,0,1.0
602,'1',0.0,0.0,7.32,-7.32,1.01091,0,20.0,0.0,0.2,0.0,0.0,1.0,0,100.0,21.053,5.0,1,1.0,0,1.0,0,1.0,0,1.0,0,1.0
611,'1',0.0,0.0,9.516,-9.516,1.02727,0,26.0,0.0,0.2,0.0,0.0,1.0,0,100.0,27.368,2.0,1,1.0,0,1.0,0,1.0,0,1.0,0,1.0
619,'1',0.0,0.0,0.333,-0.333,1.02455,0,1.0,0.0,0.2,0.0,0.0,1.0,0,100.0,252.0,2.0,1,1.0,0,1.0,0,1.0,0,1.0,0,1.0
620,'1',0.0,0.0,94.428,-94.428,1.02455,0,2.0,0.0,0.2,0.0,0.0,1.0,0,100.0,271.579,2.0,1,1.0,0,1.0,0,1.0,0,1.0,0,1.0
623,'99',5.802,-2.781,33.333,-33.333,1.03915,0,100.0,0.0,1.0,0.0,0.0,1.0,0,100.0,259.0,5.802,1,1.0,0,1.0,0,1.0,0,1.0,0,1.0
625,'1',0.0,0.0,18.3,-18.3,1.02727,0,50.0,0.0,0.2,0.0,0.0,1.0,0,100.0,52.632,2.0,1,1.0,0,1.0,0,1.0,0,1.0,0,1.0
630,'1',277.0,14.126,101.382,-101.382,1.02478,0,108.13,0.0,0.18,0.0,0.0,1.0,1,100.0,291.579,2.0,1,1.0,0,1.0,0,1.0,0,1.0,0,1.0
633,'99',20.004,-67.224,160.0,-160.0,1.01,0,100.0,0.0,1.0,0.0,0.0,1.0,1,100.0,145.216,10.951,1,1.0,0,1.0,0,1.0,0,1.0,0,1.0
634,'99',28.209,-127.183,160.0,-160.0,1.01,0,100.0,0.0,1.0,0.0,0.0,1.0,1,100.0,296.567,15.443,1,1.0,0,1.0,0,1.0,0,1.0,0,1.0
639,'99',70.248,-62.713,33.333,-33.333,1.01,0,100.0,0.0,1.0,0.0,0.0,1.0,0,100.0,85.248,70.248,1,1.0,0,1.0,0,1.0,0,1.0,0,1.0
640,'99',206.788,-70.638,33.333,-33.333,1.01,0,100.0,0.0,1.0,0.0,0.0,1.0,0,100.0,221.788,206.788,1,1.0,0,1.0,0,1.0,0,1.0,0,1.0
645,'1',109.06,-23.089,92.855,-62.0,1.01125,0,216.55,0.0,0.18,0.0,0.0,1.0,1,100.0,267.056,98.483,1,1.0,0,1.0,0,1.0,0,1.0,0,1.0
645,'2',0.0,0.0,92.855,-62.0,1.01125,0,179.0,0.0,0.18,0.0,0.0,1.0,0,100.0,267.056,98.483,1,1.0,0,1.0,0,1.0,0,1.0,0,1.0
645,'3',253.703,-53.712,92.855,-75.0,1.01125,0,179.0,0.0,0.18,0.0,0.0,1.0,1,100.0,267.056,98.483,1,1.0,0,1.0,0,1.0,0,1.0,0,1.0
646,'1',0.0,0.0,65.514,-65.514,1.01125,0,179.0,0.0,0.18,0.0,0.0,1.0,0,100.0,188.421,2.0,1,1.0,0,1.0,0,1.0,0,1.0,0,1.0
648,'98',3.0,0.496,183.0,-183.0,1.02143,0,100.0,0.0,0.1,0.0,0.0,1.0,1,100.0,526.316,2.0,1,1.0,0,1.0,0,1.0,0,1.0,0,1.0
649,'1',0.0,0.0,20.13,-20.13,1.01909,0,58.99,0.0,0.2,0.0,0.0,1.0,0,100.0,57.895,26.0,1,1.0,0,1.0,0,1.0,0,1.0,0,1.0
650,'1',0.0,0.0,18.333,-18.333,1.01909,0,55.0,0.0,0.2,0.0,0.0,1.0,0,100.0,55.0,26.0,1,1.0,0,1.0,0,1.0,0,1.0,0,1.0
652,'1',0.0,0.0,98.82,-98.82,1.02182,0,0.36,0.0,0.2,0.0,0.0,1.0,0,100.0,284.211,2.0,1,1.0,0,1.0,0,1.0,0,1.0,0,1.0
652,'98',3.0,-2.443,183.0,-183.0,1.02182,0,100.0,0.0,0.1,0.0,0.0,1.0,1,100.0,526.316,2.0,1,1.0,0,1.0,0,1.0,0,1.0,0,1.0
659,'1',0.0,0.0,6.588,-6.588,1.02182,0,18.0,0.0,0.2,0.0,0.0,1.0,0,100.0,18.947,2.0,1,1.0,0,1.0,0,1.0,0,1.0,0,1.0
660,'1',0.0,0.0,8.052,-8.052,1.02455,0,22.0,0.0,0.2,0.0,0.0,1.0,0,100.0,23.158,2.0,1,1.0,0,1.0,0,1.0,0,1.0,0,1.0
667,'1',123.0,-37.597,108.702,-108.702,1.02182,0,0.24,0.0,0.2,0.0,0.0,1.0,1,100.0,312.632,2.0,1,1.0,0,1.0,0,1.0,0,1.0,0,1.0
667,'98',3.0,-0.917,183.0,-183.0,1.02182,0,100.0,0.0,0.1,0.0,0.0,1.0,1,100.0,526.316,2.0,1,1.0,0,1.0,0,1.0,0,1.0,0,1.0
674,'1',4.0,15.474,100.284,-100.284,1.02455,0,2.0,0.0,0.2,0.0,0.0,1.0,1,100.0,288.421,2.0,1,1.0,0,1.0,0,1.0,0,1.0,0,1.0
675,'1',15.0,-5.49,5.49,-5.49,1.02182,0,15.0,0.0,0.2,0.0,0.0,1.0,1,100.0,15.789,2.0,1,1.0,0,1.0,0,1.0,0,1.0,0,1.0
679,'1',0.0,0.0,93.33,-93.33,1.02182,0,1.0,0.0,0.2,0.0,0.0,1.0,0,100.0,268.421,2.0,1,1.0,0,1.0,0,1.0,0,1.0,0,1.0
684,'1',295.0,16.072,107.97,-107.97,1.02455,0,0.12,0.0,0.2,0.0,0.0,1.0,1,100.0,310.526,2.0,1,1.0,0,1.0,0,1.0,0,1.0,0,1.0
684,'99',19.44,0.064,33.333,-33.333,1.02455,0,100.0,0.0,1.0,0.0,0.0,1.0,0,100.0,34.44,19.44,1,1.0,0,1.0,0,1.0,0,1.0,0,1.0
688,'1',268.0,-69.387,98.088,-98.088,1.02182,0,9.0,0.0,0.2,0.0,0.0,1.0,1,100.0,282.105,2.0,1,1.0,0,1.0,0,1.0,0,1.0,0,1.0
690,'1',0.0,0.0,106.506,-106.506,1.02182,0,0.24,0.0,0.2,0.0,0.0,1.0,0,100.0,306.316,2.0,1,1.0,0,1.0,0,1.0,0,1.0,0,1.0
690,'98',3.0,10.663,183.0,-183.0,1.02182,0,100.0,0.0,0.1,0.0,0.0,1.0,1,100.0,526.316,2.0,1,1.0,0,1.0,0,1.0,0,1.0,0,1.0
693,'98',3.0,96.458,183.0,-183.0,1.02438,0,100.0,0.0,0.1,0.0,0.0,1.0,1,100.0,526.316,2.0,1,1.0,0,1.0,0,1.0,0,1.0,0,1.0
696,'99',13.122,-1.996,33.333,-33.333,1.02419,0,100.0,0.0,1.0,0.0,0.0,1.0,0,100.0,28.122,13.122,1,1.0,0,1.0,0,1.0,0,1.0,0,1.0
697,'99',4.417,-38.823,33.333,-33.333,1.01937,0,100.0,0.0,1.0,0.0,0.0,1.0,0,100.0,257.0,4.417,1,1.0,0,1.0,0,1.0,0,1.0,0,1.0
698,'1',0.0,0.0,52.613,-1.0,1.02455,0,148.19,0.0,0.18,0.0,0.0,1.0,0,100.0,151.316,70.0,1,1.0,0,1.0,0,1.0,0,1.0,0,1.0
702,'1',0.0,0.0,50.325,-40.0,1.02455,0,147.7,0.0,0.18,0.0,0.0,1.0,0,100.0,144.737,32.0,1,1.0,0,1.0,0,1.0,0,1.0,0,1.0
703,'1',0.0,0.0,37.667,-37.667,1.02455,0,113.0,0.0,0.18,0.0,0.0,1.0,0,100.0,113.0,32.0,1,1.0,0,1.0,0,1.0,0,1.0,0,1.0
706,'1',0.0,0.0,45.0,-45.0,1.02455,0,135.0,0.0,0.18,0.0,0.0,1.0,0,100.0,135.0,35.0,1,1.0,0,1.0,0,1.0,0,1.0,0,1.0
719,'1',0.0,0.0,54.903,-1.25,1.02455,0,144.0,0.0,0.18,0.0,0.0,1.0,0,100.0,157.903,79.0,1,1.0,0,1.0,0,1.0,0,1.0,0,1.0
719,'2',0.0,0.0,36.667,-36.667,1.02455,0,110.0,0.0,0.18,0.0,0.0,1.0,0,100.0,110.0,79.0,1,1.0,0,1.0,0,1.0,0,1.0,0,1.0
...
0 / END OF GENERATOR DATA BEGIN BRANCH DATA
1,60,'1',0.02461,0.07336,0.00802,128.0,128.0,128.0,0.0,0.0,0.0,0.0,1,1,0.0,1,1.0,0,1.0,0,1.0,0,1.0
1,93,'1',0.03244,0.09513,0.01073,128.0,128.0,128.0,0.0,0.0,0.0,0.0,1,2,0.0,1,1.0,0,1.0,0,1.0,0,1.0
2,74,'1',0.00068,0.00368,0.00043,125.0,125.0,125.0,0.0,0.0,0.0,0.0,1,2,0.0,1,1.0,0,1.0,0,1.0,0,1.0
2,549,'TL',0.0001,0.01,0.0,119.81,143.78,143.8,0.0,0.0,0.0,0.0,1,1,0.0,45,1.0,0,1.0,0,1.0,0,1.0
4,43,'1',0.0037,0.01909,0.00247,190.0,190.0,190.0,0.0,0.0,0.0,0.0,1,1,0.0,1,1.0,0,1.0,0,1.0,0,1.0
4,93,'1',0.00349,0.01802,0.00231,190.0,190.0,190.0,0.0,0.0,0.0,0.0,1,2,0.0,1,1.0,0,1.0,0,1.0,0,1.0
7,60,'1',0.01649,0.04916,0.00537,128.0,128.0,128.0,0.0,0.0,0.0,0.0,1,1,0.0,1,1.0,0,1.0,0,1.0,0,1.0
7,73,'1',0.00374,0.01116,0.00122,128.0,128.0,128.0,0.0,0.0,0.0,0.0,1,1,0.0,1,1.0,0,1.0,0,1.0,0,1.0
10,27,'1',0.0125,0.02353,0.00262,74.0,74.0,74.0,0.0,0.0,0.0,0.0,1,2,0.0,1,1.0,0,1.0,0,1.0,0,1.0
11,92,'1',0.00236,0.00669,0.00079,62.0,62.0,62.0,0.0,0.0,0.0,0.0,1,1,0.0,1,1.0,0,1.0,0,1.0,0,1.0
16,93,'1',0.00506,0.01482,0.00168,333.45,384.75,384.8,0.0,0.0,0.0,0.0,1,2,0.0,1,1.0,0,1.0,0,1.0,0,1.0
17,81,'1',0.00892,0.05374,0.01281,249.0,249.0,249.0,0.0,0.0,0.0,0.0,1,1,0.0,1,1.0,0,1.0,0,1.0,0,1.0
17,93,'1',0.0001,0.001,0.0,260.0,312.0,312.0,0.0,0.0,0.0,0.0,1,2,0.0,1,1.0,0,1.0,0,1.0,0,1.0
18,66,'1',2e-05,0.001,0.0,333.0,350.0,350.0,0.0,0.0,0.0,0.0,1,1,0.0,1,1.0,0,1.0,0,1.0,0,1.0
19,31,'1',0.00071,0.00582,0.01221,510.0,510.0,510.0,0.0,0.0,0.0,0.0,1,1,0.0,1,1.0,0,1.0,0,1.0,0,1.0
19,35,'1',7e-05,0.001,0.00171,564.0,612.0,612.0,0.0,0.0,0.0,0.0,1,1,0.0,1,1.0,0,1.0,0,1.0,0,1.0
19,69,'1',0.0001,0.001,0.0,260.0,312.0,312.0,0.0,0.0,0.0,0.0,1,1,0.0,1,1.0,0,1.0,0,1.0,0,1.0
21,57,'1',0.04598,0.09139,0.00983,86.0,86.0,86.0,0.0,0.0,0.0,0.0,1,1,0.0,1,1.0,0,1.0,0,1.0,0,1.0
21,91,'1',0.02947,0.10073,0.01266,86.0,86.0,86.0,0.0,0.0,0.0,0.0,1,1,0.0,1,1.0,0,1.0,0,1.0,0,1.0
22,67,'1',0.01108,0.04402,0.00618,236.27,283.52,283.5,0.0,0.0,0.0,0.0,1,1,0.0,1,1.0,0,1.0,0,1.0,0,1.0
22,73,'1',0.00993,0.03804,0.00535,225.46,270.55,270.6,0.0,0.0,0.0,0.0,1,1,0.0,1,1.0,0,1.0,0,1.0,0,1.0
23,44,'1',0.00266,0.01058,0.0015,276.93,332.32,332.3,0.0,0.0,0.0,0.0,1,2,0.0,1,1.0,0,1.0,0,1.0,0,1.0
23,137,'TL',0.0001,0.01,0.0,152.75,183.3,183.3,0.0,0.0,0.0,0.0,1,1,0.0,49,1.0,0,1.0,0,1.0,0,1.0
23,254,'TL',0.0001,0.01,0.0,300.0,400.0,400.0,0.0,0.0,0.0,0.0,1,1,0.0,48,1.0,0,1.0,0,1.0,0,1.0
24,94,'1',0.00489,0.02021,0.00261,141.0,153.0,153.0,0.0,0.0,0.0,0.0,1,2,0.0,1,1.0,0,1.0,0,1.0,0,1.0
27,72,'1',0.01151,0.02166,0.00241,74.0,74.0,74.0,0.0,0.0,0.0,0.0,1,1,0.0,1,1.0,0,1.0,0,1.0,0,1.0
30,73,'1',0.01736,0.07168,0.00928,165.0,165.0,165.0,0.0,0.0,0.0,0.0,1,2,0.0,1,1.0,0,1.0,0,1.0,0,1.0
30,94,'1',0.01303,0.05385,0.00695,141.0,153.0,153.0,0.0,0.0,0.0,0.0,1,1,0.0,1,1.0,0,1.0,0,1.0,0,1.0
31,38,'1',0.00032,0.00211,0.00427,406.0,432.0,432.0,0.0,0.0,0.0,0.0,1,2,0.0,1,1.0,0,1.0,0,1.0,0,1.0
31,66,'1',0.00151,0.01243,0.02626,497.0,497.0,497.0,0.0,0.0,0.0,0.0,1,1,0.0,1,1.0,0,1.0,0,1.0,0,1.0
31,66,'2',0.00151,0.01236,0.02612,510.0,510.0,510.0,0.0,0.0,0.0,0.0,1,1,0.0,1,1.0,0,1.0,0,1.0,0,1.0
32,50,'1',0.0092,0.02296,0.00287,260.0,312.0,312.0,0.0,0.0,0.0,0.0,1,1,0.0,1,1.0,0,1.0,0,1.0,0,1.0
32,72,'1',0.02022,0.04363,0.00517,74.0,74.0,74.0,0.0,0.0,0.0,0.0,1,2,0.0,1,1.0,0,1.0,0,1.0,0,1.0
33,36,'1',0.0001,0.001,0.0,260.0,312.0,312.0,0.0,0.0,0.0,0.0,1,2,0.0,1,1.0,0,1.0,0,1.0,0,1.0
36,38,'1',0.00062,0.00521,0.01419,633.0,633.0,633.0,0.0,0.0,0.0,0.0,1,2,0.0,1,1.0,0,1.0,0,1.0,0,1.0
36,45,'1',0.0001,0.001,0.0,260.0,312.0,312.0,0.0,0.0,0.0,0.0,1,1,0.0,1,1.0,0,1.0,0,1.0,0,1.0
36,483,'TL',0.0001,0.01,0.0,257.59,297.22,297.2,0.0,0.0,0.0,0.0,1,1,0.0,46,1.0,0,1.0,0,1.0,0,1.0
37,55,'1',0.00249,0.02091,0.043,510.0,510.0,510.0,0.0,0.0,0.0,0.0,1,2,0.0,1,1.0,0,1.0,0,1.0,0,1.0
37,79,'1',0.00037,0.00306,0.00647,510.0,510.0,510.0,0.0,0.0,0.0,0.0,1,2,0.0,1,1.0,0,1.0,0,1.0,0,1.0
40,47,'1',0.00855,0.03356,0.00426,160.0,160.0,160.0,0.0,0.0,0.0,0.0,1,2,0.0,1,1.0,0,1.0,0,1.0,0,1.0
40,93,'1',0.01448,0.0565,0.00724,160.0,160.0,160.0,0.0,0.0,0.0,0.0,1,2,0.0,1,1.0,0,1.0,0,1.0,0,1.0
41,46,'1',0.00572,0.03592,0.12701,617.0,617.0,617.0,0.0,0.0,0.0,0.0,1,2,0.0,1,1.0,0,1.0,0,1.0,0,1.0
41,87,'1',0.0001,0.001,0.0,260.0,312.0,312.0,0.0,0.0,0.0,0.0,1,1,0.0,1,1.0,0,1.0,0,1.0,0,1.0
44,67,'1',0.01683,0.06688,0.0094,264.9,317.88,317.9,0.0,0.0,0.0,0.0,1,1,0.0,1,1.0,0,1.0,0,1.0,0,1.0
46,90,'1',0.00242,0.01482,0.05476,658.0,658.0,658.0,0.0,0.0,0.0,0.0,1,1,0.0,1,1.0,0,1.0,0,1.0,0,1.0
50,74,'1',0.00113,0.00465,0.00061,74.0,74.0,74.0,0.0,0.0,0.0,0.0,1,1,0.0,1,1.0,0,1.0,0,1.0,0,1.0
52,87,'1',0.0001,0.001,0.0,260.0,312.0,312.0,0.0,0.0,0.0,0.0,1,1,0.0,1,1.0,0,1.0,0,1.0,0,1.0
53,62,'1',0.00689,0.01291,0.00144,74.0,74.0,74.0,0.0,0.0,0.0,0.0,1,1,0.0,1,1.0,0,1.0,0,1.0,0,1.0
53,82,'1',0.00037,0.001,0.0,74.0,74.0,74.0,0.0,0.0,0.0,0.0,1,1,0.0,1,1.0,0,1.0,0,1.0,0,1.0
57,85,'1',0.0002,0.001,0.0,86.0,86.0,86.0,0.0,0.0,0.0,0.0,1,2,0.0,1,1.0,0,1.0,0,1.0,0,1.0
58,76,'1',0.02397,0.04498,0.00499,74.0,74.0,74.0,0.0,0.0,0.0,0.0,1,1,0.0,1,1.0,0,1.0,0,1.0,0,1.0
58,91,'1',0.0293,0.08307,0.00997,128.0,128.0,128.0,0.0,0.0,0.0,0.0,1,1,0.0,1,1.0,0,1.0,0,1.0,0,1.0
58,92,'1',0.03256,0.0924,0.01108,59.0,59.0,59.0,0.0,0.0,0.0,0.0,1,1,0.0,1,1.0,0,1.0,0,1.0,0,1.0
58,499,'TL',0.0001,0.01,0.0,139.18,167.01,167.0,0.0,0.0,0.0,0.0,1,1,0.0,47,1.0,0,1.0,0,1.0,0,1.0
62,76,'1',0.00523,0.00981,0.00108,74.0,74.0,74.0,0.0,0.0,0.0,0.0,1,1,0.0,1,1.0,0,1.0,0,1.0,0,1.0
63,90,'1',0.00075,0.00528,0.02325,331.0,331.0,331.0,0.0,0.0,0.0,0.0,1,1,0.0,1,1.0,0,1.0,0,1.0,0,1.0
68,83,'1',0.01058,0.02193,0.00216,86.0,86.0,86.0,0.0,0.0,0.0,0.0,1,2,0.0,1,1.0,0,1.0,0,1.0,0,1.0
68,84,'1',0.0059,0.01222,0.00121,86.0,86.0,86.0,0.0,0.0,0.0,0.0,1,1,0.0,1,1.0,0,1.0,0,1.0,0,1.0
69,86,'1',0.00519,0.04108,0.09283,510.0,510.0,510.0,0.0,0.0,0.0,0.0,1,1,0.0,1,1.0,0,1.0,0,1.0,0,1.0
71,93,'1',0.03778,0.11512,0.0141,128.0,128.0,128.0,0.0,0.0,0.0,0.0,1,2,0.0,1,1.0,0,1.0,0,1.0,0,1.0
79,87,'1',0.00493,0.0412,0.0844,510.0,510.0,510.0,0.0,0.0,0.0,0.0,1,2,0.0,1,1.0,0,1.0,0,1.0,0,1.0
81,494,'TL',0.0001,0.01,0.0,235.85,272.14,272.1,0.0,0.0,0.0,0.0,1,1,0.0,44,1.0,0,1.0,0,1.0,0,1.0
83,91,'1',0.0039,0.01106,0.00133,86.0,86.0,86.0,0.0,0.0,0.0,0.0,1,1,0.0,1,1.0,0,1.0,0,1.0,0,1.0
95,96,'1',2e-05,0.00021,0.0,876.0,876.0,876.0,0.0,0.0,0.0,0.0,1,2,0.0,1,1.0,0,1.0,0,1.0,0,1.0
95,99,'1',0.00171,0.00961,0.01424,250.0,250.0,250.0,0.0,0.0,0.0,0.0,1,2,0.0,1,1.0,0,1.0,0,1.0,0,1.0
96,748,'TL',0.0001,0.01,0.0,121.81,146.17,146.2,0.0,0.0,0.0,0.0,1,1,0.0,4,1.0,0,1.0,0,1.0,0,1.0
97,98,'1',2e-05,0.00021,0.0,876.0,876.0,876.0,0.0,0.0,0.0,0.0,1,2,0.0,1,1.0,0,1.0,0,1.0,0,1.0
97,100,'1',0.00194,0.01415,0.0223,341.0,341.0,341.0,0.0,0.0,0.0,0.0,1,2,0.0,1,1.0,0,1.0,0,1.0,0,1.0
97,697,'TL',0.0001,0.01,0.0,83.7,98.6,98.6,0.0,0.0,0.0,0.0,1,1,0.0,8,1.0,0,1.0,0,1.0,0,1.0
98,749,'TL',0.0001,0.01,0.0,122.55,141.4,141.4,0.0,0.0,0.0,0.0,1,2,0.0,6,1.0,0,1.0,0,1.0,0,1.0
99,100,'1',2e-05,0.00021,0.0,876.0,876.0,876.0,0.0,0.0,0.0,0.0,1,2,0.0,1,1.0,0,1.0,0,1.0,0,1.0
99,102,'1',0.00537,0.04039,0.06005,319.0,319.0,319.0,0.0,0.0,0.0,0.0,1,1,0.0,1,1.0,0,1.0,0,1.0,0,1.0
100,698,'TL',0.0001,0.01,0.0,187.88,216.79,216.8,0.0,0.0,0.0,0.0,1,2,0.0,11,1.0,0,1.0,0,1.0,0,1.0
101,102,'1',0.00066,0.00496,0.00758,319.0,319.0,319.0,0.0,0.0,0.0,0.0,1,2,0.0,1,1.0,0,1.0,0,1.0,0,1.0
101,696,'TL',0.0001,0.01,0.0,125.8,150.96,151.0,0.0,0.0,0.0,0.0,1,1,0.0,9,1.0,0,1.0,0,1.0,0,1.0
102,747,'TL',0.0001,0.01,0.0,258.73,298.54,298.5,0.0,0.0,0.0,0.0,1,1,0.0,5,1.0,0,1.0,0,1.0,0,1.0
103,152,'1',0.01248,0.04595,0.00524,75.0,75.0,75.0,0.0,0.0,0.0,0.0,1,2,0.0,1,1.0,0,1.0,0,1.0,0,1.0
104,105,'1',8e-05,0.00083,0.0,634.11,731.66,731.7,0.0,0.0,0.0,0.0,1,2,0.0,1,1.0,0,1.0,0,1.0,0,1.0
104,170,'1',0.00364,0.01149,0.00123,644.69,743.87,743.9,0.0,0.0,0.0,0.0,1,2,0.0,1,1.0,0,1.0,0,1.0,0,1.0
105,180,'1',0.00653,0.02058,0.00222,628.23,724.88,724.9,0.0,0.0,0.0,0.0,1,2,0.0,1,1.0,0,1.0,0,1.0,0,1.0
106,107,'1',8e-05,0.00083,0.0,438.0,438.0,438.0,0.0,0.0,0.0,0.0,1,2,0.0,1,1.0,0,1.0,0,1.0,0,1.0
106,140,'1',0.00488,0.01231,0.00189,74.62,97.01,97.0,0.0,0.0,0.0,0.0,1,2,0.0,1,1.0,0,1.0,0,1.0,0,1.0
107,203,'1',0.00074,0.00223,0.0003,62.0,62.0,62.0,0.0,0.0,0.0,0.0,1,1,0.0,1,1.0,0,1.0,0,1.0,0,1.0
108,170,'1',0.00157,0.00463,0.00057,653.46,753.99,754.0,0.0,0.0,0.0,0.0,1,1,0.0,1,1.0,0,1.0,0,1.0,0,1.0
108,684,'TL',0.0001,0.01,0.0,667.77,770.51,770.5,0.0,0.0,0.0,0.0,1,1,0.0,24,1.0,0,1.0,0,1.0,0,1.0
109,144,'1',0.00041,0.00124,0.00013,75.0,75.0,75.0,0.0,0.0,0.0,0.0,1,1,0.0,1,1.0,0,1.0,0,1.0,0,1.0
110,111,'1',8e-05,0.00083,0.0,438.0,438.0,438.0,0.0,0.0,0.0,0.0,1,2,0.0,1,1.0,0,1.0,0,1.0,0,1.0
110,140,'1',0.00455,0.01289,0.00174,62.0,62.0,62.0,0.0,0.0,0.0,0.0,1,2,0.0,1,1.0,0,1.0,0,1.0,0,1.0
111,207,'1',0.00603,0.01711,0.00231,62.0,62.0,62.0,0.0,0.0,0.0,0.0,1,2,0.0,1,1.0,0,1.0,0,1.0,0,1.0
112,113,'1',8e-05,0.00083,0.0,438.0,438.0,438.0,0.0,0.0,0.0,0.0,1,2,0.0,1,1.0,0,1.0,0,1.0,0,1.0
112,114,'1',0.0005,0.00149,0.0096,98.0,98.0,98.0,0.0,0.0,0.0,0.0,1,1,0.0,1,1.0,0,1.0,0,1.0,0,1.0
114,131,'1',8e-05,0.00066,7e-05,132.0,152.31,152.3,0.0,0.0,0.0,0.0,1,2,0.0,1,1.0,0,1.0,0,1.0,0,1.0
114,190,'1',0.00207,0.01413,0.00162,154.01,177.7,177.7,0.0,0.0,0.0,0.0,1,1,0.0,1,1.0,0,1.0,0,1.0,0,1.0
115,126,'1',0.00339,0.01116,0.00113,75.0,75.0,75.0,0.0,0.0,0.0,0.0,1,1,0.0,1,1.0,0,1.0,0,1.0,0,1.0
115,150,'1',0.00132,0.00231,0.00023,47.0,47.0,47.0,0.0,0.0,0.0,0.0,1,2,0.0,1,1.0,0,1.0,0,1.0,0,1.0
115,175,'1',0.00636,0.0205,0.00213,75.0,75.0,75.0,0.0,0.0,0.0,0.0,1,2,0.0,1,1.0,0,1.0,0,1.0,0,1.0
115,178,'1',0.00264,0.00818,0.00094,75.0,75.0,75.0,0.0,0.0,0.0,0.0,1,1,0.0,1,1.0,0,1.0,0,1.0,0,1.0
115,192,'1',0.0081,0.02298,0.00239,63.0,63.0,63.0,0.0,0.0,0.0,0.0,1,1,0.0,1,1.0,0,1.0,0,1.0,0,1.0
116,117,'1',8e-05,0.00083,0.0,438.0,438.0,438.0,0.0,0.0,0.0,0.0,1,2,0.0,1,1.0,0,1.0,0,1.0,0,1.0
116,132,'1',0.00174,0.00496,0.00065,57.0,57.0,57.0,0.0,0.0,0.0,0.0,1,2,0.0,1,1.0,0,1.0,0,1.0,0,1.0
116,153,'1',0.00455,0.01405,0.0016,75.0,75.0,75.0,0.0,0.0,0.0,0.0,1,2,0.0,1,1.0,0,1.0,0,1.0,0,1.0
116,186,'1',0.00504,0.01562,0.00173,75.0,75.0,75.0,0.0,0.0,0.0,0.0,1,2,0.0,1,1.0,0,1.0,0,1.0,0,1.0
116,195,'1',0.00711,0.02322,0.00234,302.57,349.12,349.1,0.0,0.0,0.0,0.0,1,1,0.0,1,1.0,0,1.0,0,1.0,0,1.0
117,145,'1',0.00496,0.01628,0.00164,123.52,148.23,148.2,0.0,0.0,0.0,0.0,1,1,0.0,1,1.0,0,1.0,0,1.0,0,1.0
117,168,'1',0.00496,0.01496,0.00179,172.26,198.76,198.8,0.0,0.0,0.0,0.0,1,2,0.0,1,1.0,0,1.0,0,1.0,0,1.0
117,187,'1',0.00504,0.01562,0.00173,75.0,75.0,75.0,0.0,0.0,0.0,0.0,1,2,0.0,1,1.0,0,1.0,0,1.0,0,1.0
118,119,'1',0.00124,0.00421,0.00059,70.0,70.0,70.0,0.0,0.0,0.0,0.0,1,2,0.0,1,1.0,0,1.0,0,1.0,0,1.0
119,122,'1',0.00413,0.01587,0.00183,91.74,105.86,105.9,0.0,0.0,0.0,0.0,1,1,0.0,1,1.0,0,1.0,0,1.0,0,1.0
119,152,'1',0.00488,0.01678,0.00193,100.5,115.96,116.0,0.0,0.0,0.0,0.0,1,2,0.0,1,1.0,0,1.0,0,1.0,0,1.0
120,144,'1',0.00355,0.01149,0.00116,75.0,75.0,75.0,0.0,0.0,0.0,0.0,1,2,0.0,1,1.0,0,1.0,0,1.0,0,1.0
120,199,'1',0.00182,0.00587,0.00587,114.0,114.0,114.0,0.0,0.0,0.0,0.0,1,2,0.0,1,1.0,0,1.0,0,1.0,0,1.0
121,122,'1',8e-05,0.00083,0.0,438.0,438.0,438.0,0.0,0.0,0.0,0.0,1,2,0.0,1,1.0,0,1.0,0,1.0,0,1.0
121,124,'1',0.00066,0.00207,0.00021,75.0,75.0,75.0,0.0,0.0,0.0,0.0,1,2,0.0,1,1.0,0,1.0,0,1.0,0,1.0
121,136,'1',0.00066,0.0024,0.00031,80.0,80.0,80.0,0.0,0.0,0.0,0.0,1,2,0.0,1,1.0,0,1.0,0,1.0,0,1.0
121,144,'1',0.00314,0.01355,0.00135,80.0,80.0,80.0,0.0,0.0,0.0,0.0,1,2,0.0,1,1.0,0,1.0,0,1.0,0,1.0
121,162,'1',0.00223,0.00826,0.00099,70.0,70.0,70.0,0.0,0.0,0.0,0.0,1,2,0.0,1,1.0,0,1.0,0,1.0,0,1.0
122,123,'1',0.00066,0.00215,0.00022,75.0,75.0,75.0,0.0,0.0,0.0,0.0,1,2,0.0,1,1.0,0,1.0,0,1.0,0,1.0
122,144,'1',0.00314,0.01355,0.00135,80.0,80.0,80.0,0.0,0.0,0.0,0.0,1,2,0.0,1,1.0,0,1.0,0,1.0,0,1.0
122,197,'1',0.00091,0.00273,0.00033,75.0,75.0,75.0,0.0,0.0,0.0,0.0,1,2,0.0,1,1.0,0,1.0,0,1.0,0,1.0
125,144,'1',0.0014,0.00455,0.00046,75.0,75.0,75.0,0.0,0.0,0.0,0.0,1,2,0.0,1,1.0,0,1.0,0,1.0,0,1.0
127,128,'1',8e-05,0.00083,0.0,438.0,438.0,438.0,0.0,0.0,0.0,0.0,1,2,0.0,1,1.0,0,1.0,0,1.0,0,1.0
127,140,'1',0.00405,0.01331,0.00135,107.11,123.59,123.6,0.0,0.0,0.0,0.0,1,2,0.0,1,1.0,0,1.0,0,1.0,0,1.0
128,182,'1',0.01025,0.02926,0.0039,107.37,123.89,123.9,0.0,0.0,0.0,0.0,1,1,0.0,1,1.0,0,1.0,0,1.0,0,1.0
129,130,'1',0.00231,0.00273,0.00058,39.0,39.0,39.0,0.0,0.0,0.0,0.0,1,2,0.0,1,1.0,0,1.0,0,1.0,0,1.0
130,151,'1',0.00579,0.01785,0.00204,198.93,238.72,238.7,0.0,0.0,0.0,0.0,1,2,0.0,1,1.0,0,1.0,0,1.0,0,1.0
130,174,'1',0.0043,0.01347,0.00147,188.62,226.34,226.3,0.0,0.0,0.0,0.0,1,1,0.0,1,1.0,0,1.0,0,1.0,0,1.0
133,167,'1',0.01198,0.03702,0.00418,156.12,180.13,180.1,0.0,0.0,0.0,0.0,1,1,0.0,1,1.0,0,1.0,0,1.0,0,1.0
133,757,'TL',0.0001,0.01,0.0,151.01,174.25,174.3,0.0,0.0,0.0,0.0,1,2,0.0,7,1.0,0,1.0,0,1.0,0,1.0
135,144,'1',0.00372,0.01207,0.00122,75.0,75.0,75.0,0.0,0.0,0.0,0.0,1,1,0.0,1,1.0,0,1.0,0,1.0,0,1.0
137,174,'1',0.00686,0.02215,0.00232,174.85,209.82,209.8,0.0,0.0,0.0,0.0,1,2,0.0,1,1.0,0,1.0,0,1.0,0,1.0
138,139,'1',0.00033,0.00041,9e-05,39.0,39.0,39.0,0.0,0.0,0.0,0.0,1,1,0.0,1,1.0,0,1.0,0,1.0,0,1.0
139,151,'1',0.0076,0.02355,0.00263,604.64,697.67,697.7,0.0,0.0,0.0,0.0,1,2,0.0,1,1.0,0,1.0,0,1.0,0,1.0
139,179,'1',0.00273,0.00876,0.0009,607.79,701.3,701.3,0.0,0.0,0.0,0.0,1,1,0.0,1,1.0,0,1.0,0,1.0,0,1.0
140,190,'1',0.01694,0.05562,0.0056,95.16,109.8,109.8,0.0,0.0,0.0,0.0,1,2,0.0,1,1.0,0,1.0,0,1.0,0,1.0
141,151,'1',0.03413,0.08545,0.00909,144.77,167.04,167.0,0.0,0.0,0.0,0.0,1,1,0.0,1,1.0,0,1.0,0,1.0,0,1.0
141,158,'1',0.00992,0.01661,0.00395,109.6,126.46,126.5,0.0,0.0,0.0,0.0,1,1,0.0,1,1.0,0,1.0,0,1.0,0,1.0
141,164,'1',0.02496,0.03802,0.00491,39.0,39.0,39.0,0.0,0.0,0.0,0.0,1,1,0.0,1,1.0,0,1.0,0,1.0,0,1.0
...